@<TRIPOS>MOLECULE
MolPort-046-958-383 MCULE-7699084467 PubChem-110093603
 33 36 0 0 0
SMALL
GASTEIGER

@<TRIPOS>ATOM
      1 C           7.3916   40.8474    6.5742 C.3     1  UNL1        0.0724
      2 C           8.1607   39.5304    6.6658 C.3     1  UNL1        0.0178
      3 C           9.4612   39.7199    7.4504 C.3     1  UNL1        0.0087
      4 C           9.9833   41.1596    7.3882 C.3     1  UNL1        0.0563
      5 C           9.6011   41.8292    6.0636 C.3     1  UNL1        0.0783
      6 N           8.1434   41.8688    5.8281 N.3     1  UNL1       -0.2686
      7 C          11.4615   41.1956    7.5890 C.ar    1  UNL1        0.0608
      8 C          13.3997   40.4066    8.7137 C.ar    1  UNL1        0.0602
      9 C          14.2100   41.2466    7.9479 C.ar    1  UNL1        0.0294
     10 C          13.6277   42.0783    6.9831 C.ar    1  UNL1        0.0521
     11 C          12.2423   42.0492    6.8053 C.ar    1  UNL1        0.0294
     12 C          14.0095   39.5183    9.7359 C.3     1  UNL1        0.0521
     13 N          12.0544   40.3961    8.5200 N.ar    1  UNL1       -0.2539
     14 N          14.4117   42.9546    6.1629 N.pl3   1  UNL1       -0.2927
     15 H          13.9933   43.2760    5.3317 H       1  UNL1        0.1541
     16 C          15.7432   43.4092    6.4324 C.ar    1  UNL1        0.1636
     17 C          17.7672   44.3005    6.0557 C.ar    1  UNL1        0.1079
     18 C          17.9206   44.0073    7.4115 C.ar    1  UNL1        0.0588
     19 N          16.5618   43.9683    5.5186 N.ar    1  UNL1       -0.2224
     20 S          16.4787   43.3053    7.9307 S.2     1  UNL1       -0.0508
     21 C           7.6513   43.1626    6.2835 C.3     1  UNL1        0.0991
     22 C           4.5384   42.6312    9.2139 C.ar    1  UNL1        0.1368
     23 C           4.5160   43.7489    8.3351 C.ar    1  UNL1        0.0407
     24 C           5.5366   43.9048    7.3900 C.ar    1  UNL1       -0.0018
     25 C           6.5832   42.9845    7.3101 C.ar    1  UNL1       -0.0062
     26 C           6.6109   41.8888    8.1732 C.ar    1  UNL1        0.0002
     27 C           5.5958   41.7177    9.1159 C.ar    1  UNL1        0.0364
     28 C           3.4357   44.7775    8.3393 C.3     1  UNL1        0.1666
     29 O           3.1292   45.1487    7.0298 O.3     1  UNL1       -0.3771
     30 H           3.9190   45.5191    6.6054 H       1  UNL1        0.2109
     31 O           3.5698   42.3677   10.1969 O.3     1  UNL1       -0.4757
     32 C           3.8602   40.4865   11.6538 C.3     1  UNL1        0.0512
     33 C           3.8370   41.9957   11.5411 C.3     1  UNL1        0.2055
@<TRIPOS>BOND
     1    32    33    1
     2    33    31    1
     3    22    31    1
     4    23    24   ar
     5    25    26   ar
     6    27    22   ar
     7    21    25    1
     8    21     6    1
     9     1     6    1
    10     1     2    1
    11     2     3    1
    12     3     4    1
    13     4     5    1
    14     4     7    1
    15     5     6    1
    16     8    13   ar
    17     9    10   ar
    18    10    14    1
    19    11     7   ar
    20    16    20   ar
    21    17    19   ar
    22    18    20   ar
    23    12     8    1
    24    28    23    1
    25    28    29    1
    26    14    16    1
    27    22    23   ar
    28    24    25   ar
    29    26    27   ar
    30     7    13   ar
    31     8     9   ar
    32    10    11   ar
    33    16    19   ar
    34    17    18   ar
    35    29    30    1
    36    14    15    1
@<TRIPOS>MOLECULE
MolPort-046-958-383 MCULE-7699084467 PubChem-110093603
 33 36 0 0 0
SMALL
GASTEIGER

@<TRIPOS>ATOM
      1 C          12.1047   40.9891    6.5283 C.3     1  UNL1        0.0724
      2 C          10.7546   41.6052    6.1649 C.3     1  UNL1        0.0178
      3 C          10.0234   42.0801    7.4230 C.3     1  UNL1        0.0087
      4 C          10.4438   41.3059    8.6772 C.3     1  UNL1        0.0563
      5 C          10.8410   39.8667    8.3310 C.3     1  UNL1        0.0783
      6 N          11.9501   39.7844    7.3588 N.3     1  UNL1       -0.2686
      7 C           9.3553   41.3206    9.6978 C.ar    1  UNL1        0.0608
      8 C           8.6765   41.3313   11.9745 C.ar    1  UNL1        0.0602
      9 C           7.3338   41.3693   11.5945 C.ar    1  UNL1        0.0294
     10 C           7.0000   41.3821   10.2342 C.ar    1  UNL1        0.0521
     11 C           8.0218   41.3578    9.2818 C.ar    1  UNL1        0.0294
     12 C           9.0393   41.3218   13.4147 C.3     1  UNL1        0.0521
     13 N           9.6517   41.3098   11.0280 N.ar    1  UNL1       -0.2539
     14 N           5.6389   41.4290    9.7868 N.pl3   1  UNL1       -0.2927
     15 H           5.4889   41.3637    8.8159 H       1  UNL1        0.1541
     16 C           4.4750   41.5616   10.6116 C.ar    1  UNL1        0.1636
     17 C           2.9837   41.0877   12.2191 C.ar    1  UNL1        0.1079
     18 C           2.3795   42.2384   11.7106 C.ar    1  UNL1        0.0588
     19 N           4.1421   40.7172   11.6085 N.ar    1  UNL1       -0.2224
     20 S           3.3525   42.7906   10.4498 S.2     1  UNL1       -0.0508
     21 C          13.1912   39.6333    8.1072 C.3     1  UNL1        0.0991
     22 C          15.6837   43.1082    7.5848 C.ar    1  UNL1        0.1368
     23 C          14.5377   42.9150    6.7653 C.ar    1  UNL1        0.0407
     24 C          13.7405   41.7794    6.9496 C.ar    1  UNL1       -0.0018
     25 C          14.0654   40.8277    7.9179 C.ar    1  UNL1       -0.0062
     26 C          15.1910   41.0117    8.7212 C.ar    1  UNL1        0.0002
     27 C          15.9909   42.1432    8.5525 C.ar    1  UNL1        0.0364
     28 C          14.1064   43.8801    5.7128 C.3     1  UNL1        0.1666
     29 O          14.3210   45.1871    6.1512 O.3     1  UNL1       -0.3771
     30 H          13.8067   45.3460    6.9581 H       1  UNL1        0.2109
     31 O          16.5537   44.2077    7.4958 O.3     1  UNL1       -0.4757
     32 C          17.8162   43.7872    5.5020 C.3     1  UNL1        0.0512
     33 C          17.8698   44.1785    6.9631 C.3     1  UNL1        0.2055
@<TRIPOS>BOND
     1    32    33    1
     2    33    31    1
     3    22    31    1
     4    23    24   ar
     5    25    26   ar
     6    27    22   ar
     7    21    25    1
     8    21     6    1
     9     1     6    1
    10     1     2    1
    11     2     3    1
    12     3     4    1
    13     4     5    1
    14     4     7    1
    15     5     6    1
    16     8    13   ar
    17     9    10   ar
    18    10    14    1
    19    11     7   ar
    20    16    20   ar
    21    17    19   ar
    22    18    20   ar
    23    12     8    1
    24    28    23    1
    25    28    29    1
    26    14    16    1
    27    22    23   ar
    28    24    25   ar
    29    26    27   ar
    30     7    13   ar
    31     8     9   ar
    32    10    11   ar
    33    16    19   ar
    34    17    18   ar
    35    29    30    1
    36    14    15    1
@<TRIPOS>MOLECULE
MolPort-046-958-383 MCULE-7699084467 PubChem-110093603
 33 36 0 0 0
SMALL
GASTEIGER

@<TRIPOS>ATOM
      1 C          10.6611   38.9437    8.9023 C.3     1  UNL1        0.0724
      2 C          11.4285   37.7636    9.4964 C.3     1  UNL1        0.0178
      3 C          12.7330   38.2392   10.1406 C.3     1  UNL1        0.0087
      4 C          13.2571   39.5395    9.5211 C.3     1  UNL1        0.0563
      5 C          12.8698   39.6421    8.0417 C.3     1  UNL1        0.0783
      6 N          11.4110   39.5917    7.8148 N.3     1  UNL1       -0.2686
      7 C          14.7362   39.6460    9.6866 C.ar    1  UNL1        0.0608
      8 C          16.7893   38.7174   10.4396 C.ar    1  UNL1        0.0602
      9 C          17.4871   39.8338    9.9754 C.ar    1  UNL1        0.0294
     10 C          16.7887   40.8771    9.3545 C.ar    1  UNL1        0.0521
     11 C          15.4026   40.7783    9.2107 C.ar    1  UNL1        0.0294
     12 C          17.5226   37.6047   11.0953 C.3     1  UNL1        0.0521
     13 N          15.4407   38.6451   10.2860 N.ar    1  UNL1       -0.2539
     14 N          17.4545   42.0429    8.8517 N.pl3   1  UNL1       -0.2927
     15 H          18.2501   42.3467    9.3457 H       1  UNL1        0.1541
     16 C          17.0775   42.8099    7.7019 C.ar    1  UNL1        0.1636
     17 C          17.2997   44.1261    5.8988 C.ar    1  UNL1        0.1079
     18 C          15.9138   43.9650    5.8664 C.ar    1  UNL1        0.0588
     19 N          17.9390   43.4856    6.9152 N.ar    1  UNL1       -0.2224
     20 S          15.5008   42.9808    7.1711 S.2     1  UNL1       -0.0508
     21 C          10.9231   40.9623    7.7325 C.3     1  UNL1        0.0991
     22 C           6.7661   41.1087    8.8542 C.ar    1  UNL1        0.1368
     23 C           7.1486   40.6299    7.5710 C.ar    1  UNL1        0.0407
     24 C           8.5042   40.5905    7.2245 C.ar    1  UNL1       -0.0018
     25 C           9.4831   41.0293    8.1178 C.ar    1  UNL1       -0.0062
     26 C           9.1115   41.5034    9.3762 C.ar    1  UNL1        0.0002
     27 C           7.7636   41.5417    9.7370 C.ar    1  UNL1        0.0364
     28 C           6.1766   40.1321    6.5549 C.3     1  UNL1        0.1666
     29 O           6.7025   39.0169    5.9020 O.3     1  UNL1       -0.3771
     30 H           7.5289   39.2624    5.4575 H       1  UNL1        0.2109
     31 O           5.4412   41.1904    9.3145 O.3     1  UNL1       -0.4757
     32 C           3.9695   40.3462   11.0078 C.3     1  UNL1        0.0512
     33 C           5.0459   41.3548   10.6685 C.3     1  UNL1        0.2055
@<TRIPOS>BOND
     1    32    33    1
     2    33    31    1
     3    22    31    1
     4    23    24   ar
     5    25    26   ar
     6    27    22   ar
     7    21    25    1
     8    21     6    1
     9     1     6    1
    10     1     2    1
    11     2     3    1
    12     3     4    1
    13     4     5    1
    14     4     7    1
    15     5     6    1
    16     8    13   ar
    17     9    10   ar
    18    10    14    1
    19    11     7   ar
    20    16    20   ar
    21    17    19   ar
    22    18    20   ar
    23    12     8    1
    24    28    23    1
    25    28    29    1
    26    14    16    1
    27    22    23   ar
    28    24    25   ar
    29    26    27   ar
    30     7    13   ar
    31     8     9   ar
    32    10    11   ar
    33    16    19   ar
    34    17    18   ar
    35    29    30    1
    36    14    15    1
@<TRIPOS>MOLECULE
MolPort-046-958-383 MCULE-7699084467 PubChem-110093603
 33 36 0 0 0
SMALL
GASTEIGER

@<TRIPOS>ATOM
      1 C          10.2964   41.2035    7.1128 C.3     1  UNL1        0.0724
      2 C          11.0299   41.7323    5.8811 C.3     1  UNL1        0.0178
      3 C          12.5412   41.5415    6.0314 C.3     1  UNL1        0.0087
      4 C          12.9875   41.4988    7.4971 C.3     1  UNL1        0.0563
      5 C          12.0761   42.3608    8.3776 C.3     1  UNL1        0.0783
      6 N          10.6577   41.9515    8.3273 N.3     1  UNL1       -0.2686
      7 C          14.4096   41.9306    7.6300 C.ar    1  UNL1        0.0608
      8 C          16.1784   43.3892    7.0068 C.ar    1  UNL1        0.0602
      9 C          17.0460   42.7471    7.8920 C.ar    1  UNL1        0.0294
     10 C          16.5800   41.6727    8.6603 C.ar    1  UNL1        0.0521
     11 C          15.2507   41.2647    8.5254 C.ar    1  UNL1        0.0294
     12 C          16.6632   44.5320    6.1915 C.3     1  UNL1        0.0521
     13 N          14.8891   42.9737    6.8954 N.ar    1  UNL1       -0.2539
     14 N          17.4240   40.9820    9.5908 N.pl3   1  UNL1       -0.2927
     15 H          18.0985   41.5220   10.0627 H       1  UNL1        0.1541
     16 C          17.3838   39.5842    9.9023 C.ar    1  UNL1        0.1636
     17 C          16.5830   37.4934   10.0439 C.ar    1  UNL1        0.1079
     18 C          17.8239   37.2798   10.6458 C.ar    1  UNL1        0.0588
     19 N          16.3440   38.7690    9.6343 N.ar    1  UNL1       -0.2224
     20 S          18.6302   38.7601   10.6533 S.2     1  UNL1       -0.0508
     21 C          10.4084   41.0611    9.4535 C.3     1  UNL1        0.0991
     22 C           6.4903   41.7432   11.1097 C.ar    1  UNL1        0.1368
     23 C           6.6860   41.7432    9.7013 C.ar    1  UNL1        0.0407
     24 C           7.9665   41.5204    9.1820 C.ar    1  UNL1       -0.0018
     25 C           9.0555   41.3130   10.0304 C.ar    1  UNL1       -0.0062
     26 C           8.8684   41.3161   11.4129 C.ar    1  UNL1        0.0002
     27 C           7.5953   41.5304   11.9439 C.ar    1  UNL1        0.0364
     28 C           5.5835   41.9461    8.7172 C.3     1  UNL1        0.1666
     29 O           5.3511   40.7632    8.0149 O.3     1  UNL1       -0.3771
     30 H           6.1569   40.5052    7.5405 H       1  UNL1        0.2109
     31 O           5.2544   41.9502   11.7450 O.3     1  UNL1       -0.4757
     32 C           3.8723   40.0055   11.5131 C.3     1  UNL1        0.0512
     33 C           3.9956   41.4945   11.2712 C.3     1  UNL1        0.2055
@<TRIPOS>BOND
     1    32    33    1
     2    33    31    1
     3    22    31    1
     4    23    24   ar
     5    25    26   ar
     6    27    22   ar
     7    21    25    1
     8    21     6    1
     9     1     6    1
    10     1     2    1
    11     2     3    1
    12     3     4    1
    13     4     5    1
    14     4     7    1
    15     5     6    1
    16     8    13   ar
    17     9    10   ar
    18    10    14    1
    19    11     7   ar
    20    16    20   ar
    21    17    19   ar
    22    18    20   ar
    23    12     8    1
    24    28    23    1
    25    28    29    1
    26    14    16    1
    27    22    23   ar
    28    24    25   ar
    29    26    27   ar
    30     7    13   ar
    31     8     9   ar
    32    10    11   ar
    33    16    19   ar
    34    17    18   ar
    35    29    30    1
    36    14    15    1
@<TRIPOS>MOLECULE
MolPort-046-958-383 MCULE-7699084467 PubChem-110093603
 33 36 0 0 0
SMALL
GASTEIGER

@<TRIPOS>ATOM
      1 C           8.7900   39.3177    3.9956 C.3     1  UNL1        0.0724
      2 C          10.1657   39.5096    3.3591 C.3     1  UNL1        0.0178
      3 C          11.2708   39.3435    4.4051 C.3     1  UNL1        0.0087
      4 C          10.7922   39.6658    5.8251 C.3     1  UNL1        0.0563
      5 C           9.6927   40.7335    5.8087 C.3     1  UNL1        0.0783
      6 N           8.5107   40.3428    5.0135 N.3     1  UNL1       -0.2686
      7 C          11.9339   40.0990    6.6827 C.ar    1  UNL1        0.0608
      8 C          13.4283   39.6725    8.4797 C.ar    1  UNL1        0.0602
      9 C          14.0686   40.8937    8.2629 C.ar    1  UNL1        0.0294
     10 C          13.6271   41.7330    7.2322 C.ar    1  UNL1        0.0521
     11 C          12.5512   41.3285    6.4380 C.ar    1  UNL1        0.0294
     12 C          13.8929   38.7747    9.5678 C.3     1  UNL1        0.0521
     13 N          12.3846   39.3015    7.6918 N.ar    1  UNL1       -0.2539
     14 N          14.2522   42.9939    6.9591 N.pl3   1  UNL1       -0.2927
     15 H          13.6579   43.7389    6.7121 H       1  UNL1        0.1541
     16 C          15.6555   43.2777    7.0098 C.ar    1  UNL1        0.1636
     17 C          17.7577   43.3100    7.7925 C.ar    1  UNL1        0.1079
     18 C          17.9671   44.0222    6.6107 C.ar    1  UNL1        0.0588
     19 N          16.4782   42.9002    8.0089 N.ar    1  UNL1       -0.2224
     20 S          16.4778   44.1292    5.8285 S.2     1  UNL1       -0.0508
     21 C           7.5287   39.7681    5.9238 C.3     1  UNL1        0.0991
     22 C           7.8232   41.6554    9.7853 C.ar    1  UNL1        0.1368
     23 C           8.9534   41.0107    9.2116 C.ar    1  UNL1        0.0407
     24 C           8.8379   40.4024    7.9563 C.ar    1  UNL1       -0.0018
     25 C           7.6233   40.4087    7.2682 C.ar    1  UNL1       -0.0062
     26 C           6.5113   41.0368    7.8295 C.ar    1  UNL1        0.0002
     27 C           6.6144   41.6530    9.0777 C.ar    1  UNL1        0.0364
     28 C          10.2928   40.9607    9.8663 C.3     1  UNL1        0.1666
     29 O          10.3865   39.8228   10.6681 O.3     1  UNL1       -0.3771
     30 H           9.6994   39.8518   11.3522 H       1  UNL1        0.2109
     31 O           7.8196   42.3017   11.0328 O.3     1  UNL1       -0.4757
     32 C           8.6032   41.3264   13.0775 C.3     1  UNL1        0.0512
     33 C           7.3941   41.7268   12.2596 C.3     1  UNL1        0.2055
@<TRIPOS>BOND
     1    32    33    1
     2    33    31    1
     3    22    31    1
     4    23    24   ar
     5    25    26   ar
     6    27    22   ar
     7    21    25    1
     8    21     6    1
     9     1     6    1
    10     1     2    1
    11     2     3    1
    12     3     4    1
    13     4     5    1
    14     4     7    1
    15     5     6    1
    16     8    13   ar
    17     9    10   ar
    18    10    14    1
    19    11     7   ar
    20    16    20   ar
    21    17    19   ar
    22    18    20   ar
    23    12     8    1
    24    28    23    1
    25    28    29    1
    26    14    16    1
    27    22    23   ar
    28    24    25   ar
    29    26    27   ar
    30     7    13   ar
    31     8     9   ar
    32    10    11   ar
    33    16    19   ar
    34    17    18   ar
    35    29    30    1
    36    14    15    1
@<TRIPOS>MOLECULE
MolPort-046-958-383 MCULE-7699084467 PubChem-110093603
 33 36 0 0 0
SMALL
GASTEIGER

@<TRIPOS>ATOM
      1 C          12.6172   39.3489    7.8506 C.3     1  UNL1        0.0724
      2 C          11.1780   39.3642    7.3375 C.3     1  UNL1        0.0178
      3 C          10.3369   40.3727    8.1238 C.3     1  UNL1        0.0087
      4 C          10.8784   40.6183    9.5365 C.3     1  UNL1        0.0563
      5 C          11.5697   39.3668   10.0887 C.3     1  UNL1        0.0783
      6 N          12.6938   38.9023    9.2505 N.3     1  UNL1       -0.2686
      7 C           9.7872   41.0640   10.4515 C.ar    1  UNL1        0.0608
      8 C           8.9409   41.3415   12.6540 C.ar    1  UNL1        0.0602
      9 C           7.7691   41.9113   12.1531 C.ar    1  UNL1        0.0294
     10 C           7.6076   42.0574   10.7695 C.ar    1  UNL1        0.0521
     11 C           8.6272   41.6295    9.9156 C.ar    1  UNL1        0.0294
     12 C           9.1221   41.1867   14.1200 C.3     1  UNL1        0.0521
     13 N           9.9185   40.9346   11.8019 N.ar    1  UNL1       -0.2539
     14 N           6.4294   42.6430   10.2001 N.pl3   1  UNL1       -0.2927
     15 H           6.5175   43.5549    9.8397 H       1  UNL1        0.1541
     16 C           5.1366   42.0333   10.1034 C.ar    1  UNL1        0.1636
     17 C           3.5368   40.4741   10.3099 C.ar    1  UNL1        0.1079
     18 C           2.7758   41.4698    9.6957 C.ar    1  UNL1        0.0588
     19 N           4.8415   40.7901   10.5336 N.ar    1  UNL1       -0.2224
     20 S           3.8002   42.7824    9.4330 S.2     1  UNL1       -0.0508
     21 C          13.9224   39.4622    9.7988 C.3     1  UNL1        0.0991
     22 C          15.3280   42.7033    7.3331 C.ar    1  UNL1        0.1368
     23 C          16.2264   42.0080    8.1884 C.ar    1  UNL1        0.0407
     24 C          15.7509   40.9581    8.9826 C.ar    1  UNL1       -0.0018
     25 C          14.4030   40.5956    8.9557 C.ar    1  UNL1       -0.0062
     26 C          13.5177   41.2778    8.1208 C.ar    1  UNL1        0.0002
     27 C          13.9800   42.3224    7.3186 C.ar    1  UNL1        0.0364
     28 C          17.6830   42.3169    8.2778 C.3     1  UNL1        0.1666
     29 O          18.4162   41.1316    8.3407 O.3     1  UNL1       -0.3771
     30 H          18.1495   40.6277    9.1254 H       1  UNL1        0.2109
     31 O          15.6892   43.7672    6.4896 O.3     1  UNL1       -0.4757
     32 C          17.8763   43.8960    5.5170 C.3     1  UNL1        0.0512
     33 C          16.9186   44.4766    6.5352 C.3     1  UNL1        0.2055
@<TRIPOS>BOND
     1    32    33    1
     2    33    31    1
     3    22    31    1
     4    23    24   ar
     5    25    26   ar
     6    27    22   ar
     7    21    25    1
     8    21     6    1
     9     1     6    1
    10     1     2    1
    11     2     3    1
    12     3     4    1
    13     4     5    1
    14     4     7    1
    15     5     6    1
    16     8    13   ar
    17     9    10   ar
    18    10    14    1
    19    11     7   ar
    20    16    20   ar
    21    17    19   ar
    22    18    20   ar
    23    12     8    1
    24    28    23    1
    25    28    29    1
    26    14    16    1
    27    22    23   ar
    28    24    25   ar
    29    26    27   ar
    30     7    13   ar
    31     8     9   ar
    32    10    11   ar
    33    16    19   ar
    34    17    18   ar
    35    29    30    1
    36    14    15    1
@<TRIPOS>MOLECULE
MolPort-046-958-383 MCULE-7699084467 PubChem-110093603
 33 36 0 0 0
SMALL
GASTEIGER

@<TRIPOS>ATOM
      1 C           8.4696   40.9792    8.1882 C.3     1  UNL1        0.0724
      2 C           9.1952   39.7546    7.6329 C.3     1  UNL1        0.0178
      3 C          10.4279   39.4292    8.4799 C.3     1  UNL1        0.0087
      4 C          10.9889   40.6593    9.2021 C.3     1  UNL1        0.0563
      5 C          10.7383   41.9369    8.3933 C.3     1  UNL1        0.0783
      6 N           9.3076   42.1869    8.1241 N.3     1  UNL1       -0.2686
      7 C          12.4448   40.4905    9.4820 C.ar    1  UNL1        0.0608
      8 C          14.1869   39.5387   10.7870 C.ar    1  UNL1        0.0602
      9 C          15.1501   40.1592    9.9896 C.ar    1  UNL1        0.0294
     10 C          14.7459   40.9630    8.9162 C.ar    1  UNL1        0.0521
     11 C          13.3817   41.1270    8.6637 C.ar    1  UNL1        0.0294
     12 C          14.6069   38.6812   11.9247 C.3     1  UNL1        0.0521
     13 N          12.8659   39.7132   10.5192 N.ar    1  UNL1       -0.2539
     14 N          15.6910   41.6175    8.0596 N.pl3   1  UNL1       -0.2927
     15 H          16.6123   41.2705    8.0691 H       1  UNL1        0.1541
     16 C          15.4283   42.7261    7.1910 C.ar    1  UNL1        0.1636
     17 C          14.4095   43.9545    5.6144 C.ar    1  UNL1        0.1079
     18 C          15.4299   44.8479    5.9439 C.ar    1  UNL1        0.0588
     19 N          14.4124   42.7829    6.3065 N.ar    1  UNL1       -0.2224
     20 S          16.3559   44.1170    7.1479 S.2     1  UNL1       -0.0508
     21 C           8.8103   43.0929    9.1513 C.3     1  UNL1        0.0991
     22 C           4.5101   42.8984    9.3237 C.ar    1  UNL1        0.1368
     23 C           5.1544   43.8962    8.5417 C.ar    1  UNL1        0.0407
     24 C           6.5526   43.9438    8.4988 C.ar    1  UNL1       -0.0018
     25 C           7.3213   43.0331    9.2258 C.ar    1  UNL1       -0.0062
     26 C           6.6929   42.0552    9.9972 C.ar    1  UNL1        0.0002
     27 C           5.2992   41.9923   10.0436 C.ar    1  UNL1        0.0364
     28 C           4.4183   44.9045    7.7252 C.3     1  UNL1        0.1666
     29 O           3.0769   44.9362    8.1073 O.3     1  UNL1       -0.3771
     30 H           2.6798   44.0625    7.9667 H       1  UNL1        0.2109
     31 O           3.1179   42.7495    9.4401 O.3     1  UNL1       -0.4757
     32 C           3.3416   40.4799   10.1782 C.3     1  UNL1        0.0512
     33 C           2.4264   41.5149    9.5600 C.3     1  UNL1        0.2055
@<TRIPOS>BOND
     1    32    33    1
     2    33    31    1
     3    22    31    1
     4    23    24   ar
     5    25    26   ar
     6    27    22   ar
     7    21    25    1
     8    21     6    1
     9     1     6    1
    10     1     2    1
    11     2     3    1
    12     3     4    1
    13     4     5    1
    14     4     7    1
    15     5     6    1
    16     8    13   ar
    17     9    10   ar
    18    10    14    1
    19    11     7   ar
    20    16    20   ar
    21    17    19   ar
    22    18    20   ar
    23    12     8    1
    24    28    23    1
    25    28    29    1
    26    14    16    1
    27    22    23   ar
    28    24    25   ar
    29    26    27   ar
    30     7    13   ar
    31     8     9   ar
    32    10    11   ar
    33    16    19   ar
    34    17    18   ar
    35    29    30    1
    36    14    15    1
@<TRIPOS>MOLECULE
MolPort-046-958-383 MCULE-7699084467 PubChem-110093603
 33 36 0 0 0
SMALL
GASTEIGER

@<TRIPOS>ATOM
      1 C          15.8833   38.3838   10.8719 C.3     1  UNL1        0.0724
      2 C          16.9456   39.1880   10.1240 C.3     1  UNL1        0.0178
      3 C          16.3410   40.4680    9.5418 C.3     1  UNL1        0.0087
      4 C          14.8368   40.3419    9.2758 C.3     1  UNL1        0.0563
      5 C          14.4573   38.9000    8.9209 C.3     1  UNL1        0.0783
      6 N          14.8110   37.9266    9.9741 N.3     1  UNL1       -0.2686
      7 C          14.4098   41.2796    8.1965 C.ar    1  UNL1        0.0608
      8 C          14.9328   43.0125    6.6578 C.ar    1  UNL1        0.0602
      9 C          13.6226   43.0073    6.1763 C.ar    1  UNL1        0.0294
     10 C          12.6889   42.1168    6.7213 C.ar    1  UNL1        0.0521
     11 C          13.0899   41.2477    7.7389 C.ar    1  UNL1        0.0294
     12 C          15.9303   43.9506    6.0825 C.3     1  UNL1        0.0521
     13 N          15.2979   42.1556    7.6476 N.ar    1  UNL1       -0.2539
     14 N          11.3326   42.0621    6.2600 N.pl3   1  UNL1       -0.2927
     15 H          10.7625   42.8376    6.4669 H       1  UNL1        0.1541
     16 C          10.7243   40.9914    5.5280 C.ar    1  UNL1        0.1636
     17 C          10.5656   39.1590    4.2434 C.ar    1  UNL1        0.1079
     18 C           9.2037   39.3878    4.4448 C.ar    1  UNL1        0.0588
     19 N          11.4027   40.0480    4.8443 N.ar    1  UNL1       -0.2224
     20 S           9.0718   40.7611    5.4132 S.2     1  UNL1       -0.0508
     21 C          13.6326   37.7189   10.8059 C.3     1  UNL1        0.0991
     22 C          10.5854   40.6393    9.9425 C.ar    1  UNL1        0.1368
     23 C          10.6294   39.4120    9.2256 C.ar    1  UNL1        0.0407
     24 C          11.6275   38.4758    9.5199 C.ar    1  UNL1       -0.0018
     25 C          12.5882   38.7391   10.4979 C.ar    1  UNL1       -0.0062
     26 C          12.5507   39.9437   11.2007 C.ar    1  UNL1        0.0002
     27 C          11.5567   40.8832   10.9219 C.ar    1  UNL1        0.0364
     28 C           9.6421   39.0386    8.1717 C.3     1  UNL1        0.1666
     29 O           9.5770   37.6500    8.0534 O.3     1  UNL1       -0.3771
     30 H          10.4498   37.3052    7.8076 H       1  UNL1        0.2109
     31 O           9.6311   41.6501    9.7388 O.3     1  UNL1       -0.4757
     32 C           9.1663   43.9500   10.2291 C.3     1  UNL1        0.0512
     33 C           9.9124   42.9824    9.3357 C.3     1  UNL1        0.2055
@<TRIPOS>BOND
     1    32    33    1
     2    33    31    1
     3    22    31    1
     4    23    24   ar
     5    25    26   ar
     6    27    22   ar
     7    21    25    1
     8    21     6    1
     9     1     6    1
    10     1     2    1
    11     2     3    1
    12     3     4    1
    13     4     5    1
    14     4     7    1
    15     5     6    1
    16     8    13   ar
    17     9    10   ar
    18    10    14    1
    19    11     7   ar
    20    16    20   ar
    21    17    19   ar
    22    18    20   ar
    23    12     8    1
    24    28    23    1
    25    28    29    1
    26    14    16    1
    27    22    23   ar
    28    24    25   ar
    29    26    27   ar
    30     7    13   ar
    31     8     9   ar
    32    10    11   ar
    33    16    19   ar
    34    17    18   ar
    35    29    30    1
    36    14    15    1
@<TRIPOS>MOLECULE
MolPort-046-958-383 MCULE-7699084467 PubChem-110093603
 33 36 0 0 0
SMALL
GASTEIGER

@<TRIPOS>ATOM
      1 C           5.9395   43.4261    8.0940 C.3     1  UNL1        0.0724
      2 C           6.1750   43.7728    6.6247 C.3     1  UNL1        0.0178
      3 C           6.9314   42.6441    5.9198 C.3     1  UNL1        0.0087
      4 C           7.7900   41.8176    6.8835 C.3     1  UNL1        0.0563
      5 C           8.2934   42.6754    8.0496 C.3     1  UNL1        0.0783
      6 N           7.2043   43.2925    8.8338 N.3     1  UNL1       -0.2686
      7 C           8.9335   41.1846    6.1635 C.ar    1  UNL1        0.0608
      8 C           9.7519   39.8936    4.3449 C.ar    1  UNL1        0.0602
      9 C          11.0600   40.0263    4.8137 C.ar    1  UNL1        0.0294
     10 C          11.3045   40.7548    5.9847 C.ar    1  UNL1        0.0521
     11 C          10.2301   41.3372    6.6616 C.ar    1  UNL1        0.0294
     12 C           9.4843   39.1263    3.1017 C.3     1  UNL1        0.0521
     13 N           8.7242   40.4712    5.0213 N.ar    1  UNL1       -0.2539
     14 N          12.6279   40.9306    6.5073 N.pl3   1  UNL1       -0.2927
     15 H          13.0335   40.1544    6.9570 H       1  UNL1        0.1541
     16 C          13.4188   42.1232    6.4404 C.ar    1  UNL1        0.1636
     17 C          14.0654   44.1728    5.7970 C.ar    1  UNL1        0.1079
     18 C          15.0968   43.9050    6.6982 C.ar    1  UNL1        0.0588
     19 N          13.1398   43.1849    5.6578 N.ar    1  UNL1       -0.2224
     20 S          14.8150   42.3671    7.3280 S.2     1  UNL1       -0.0508
     21 C           6.9294   42.4290    9.9749 C.3     1  UNL1        0.0991
     22 C          10.5749   40.8088   11.6012 C.ar    1  UNL1        0.1368
     23 C           9.5269   41.2306   12.4648 C.ar    1  UNL1        0.0407
     24 C           8.3502   41.7551   11.9177 C.ar    1  UNL1       -0.0018
     25 C           8.1995   41.8824   10.5357 C.ar    1  UNL1       -0.0062
     26 C           9.2269   41.4733    9.6853 C.ar    1  UNL1        0.0002
     27 C          10.4031   40.9422   10.2174 C.ar    1  UNL1        0.0364
     28 C           9.5927   41.1251   13.9513 C.3     1  UNL1        0.1666
     29 O           8.6832   42.0105   14.5303 O.3     1  UNL1       -0.3771
     30 H           8.9023   42.9178   14.2662 H       1  UNL1        0.2109
     31 O          11.7960   40.2642   12.0329 O.3     1  UNL1       -0.4757
     32 C          13.8179   38.9795   11.9475 C.3     1  UNL1        0.0512
     33 C          12.8791   39.8951   11.1918 C.3     1  UNL1        0.2055
@<TRIPOS>BOND
     1    32    33    1
     2    33    31    1
     3    22    31    1
     4    23    24   ar
     5    25    26   ar
     6    27    22   ar
     7    21    25    1
     8    21     6    1
     9     1     6    1
    10     1     2    1
    11     2     3    1
    12     3     4    1
    13     4     5    1
    14     4     7    1
    15     5     6    1
    16     8    13   ar
    17     9    10   ar
    18    10    14    1
    19    11     7   ar
    20    16    20   ar
    21    17    19   ar
    22    18    20   ar
    23    12     8    1
    24    28    23    1
    25    28    29    1
    26    14    16    1
    27    22    23   ar
    28    24    25   ar
    29    26    27   ar
    30     7    13   ar
    31     8     9   ar
    32    10    11   ar
    33    16    19   ar
    34    17    18   ar
    35    29    30    1
    36    14    15    1
@<TRIPOS>MOLECULE
MolPort-046-958-383 MCULE-7699084467 PubChem-110093603
 33 36 0 0 0
SMALL
GASTEIGER

@<TRIPOS>ATOM
      1 C          12.2653   40.0354    7.0684 C.3     1  UNL1        0.0724
      2 C          11.1818   39.8562    6.0061 C.3     1  UNL1        0.0178
      3 C          10.0464   40.8602    6.2204 C.3     1  UNL1        0.0087
      4 C           9.9252   41.3108    7.6803 C.3     1  UNL1        0.0563
      5 C          10.3654   40.1997    8.6400 C.3     1  UNL1        0.0783
      6 N          11.7569   39.7554    8.4205 N.3     1  UNL1       -0.2686
      7 C           8.5315   41.7481    7.9852 C.ar    1  UNL1        0.0608
      8 C           6.6600   43.1275    7.4962 C.ar    1  UNL1        0.0602
      9 C           5.9346   42.5463    8.5375 C.ar    1  UNL1        0.0294
     10 C           6.5261   41.5445    9.3176 C.ar    1  UNL1        0.0521
     11 C           7.8348   41.1451    9.0356 C.ar    1  UNL1        0.0294
     12 C           6.0389   44.1874    6.6614 C.3     1  UNL1        0.0521
     13 N           7.9314   42.7199    7.2415 N.ar    1  UNL1       -0.2539
     14 N           5.8255   40.9072   10.3939 N.pl3   1  UNL1       -0.2927
     15 H           6.2586   40.1227   10.8016 H       1  UNL1        0.1541
     16 C           4.5580   41.2982   10.9351 C.ar    1  UNL1        0.1636
     17 C           2.8216   41.3753   12.3535 C.ar    1  UNL1        0.1079
     18 C           2.3539   42.2869   11.4058 C.ar    1  UNL1        0.0588
     19 N           4.0406   40.8313   12.0892 N.ar    1  UNL1       -0.2224
     20 S           3.5298   42.3952   10.2029 S.2     1  UNL1       -0.0508
     21 C          12.6119   40.4873    9.3460 C.3     1  UNL1        0.0991
     22 C          15.7334   42.5801    7.2396 C.ar    1  UNL1        0.1368
     23 C          14.3667   42.8560    6.9599 C.ar    1  UNL1        0.0407
     24 C          13.3667   42.1653    7.6542 C.ar    1  UNL1       -0.0018
     25 C          13.6952   41.1990    8.6066 C.ar    1  UNL1       -0.0062
     26 C          15.0348   40.9226    8.8810 C.ar    1  UNL1        0.0002
     27 C          16.0421   41.6090    8.2007 C.ar    1  UNL1        0.0364
     28 C          13.9193   43.8761    5.9678 C.3     1  UNL1        0.1666
     29 O          14.4708   45.1182    6.2833 O.3     1  UNL1       -0.3771
     30 H          14.1786   45.3864    7.1685 H       1  UNL1        0.2109
     31 O          16.8207   43.2108    6.6121 O.3     1  UNL1       -0.4757
     32 C          17.5916   44.0163    8.7341 C.3     1  UNL1        0.0512
     33 C          17.7123   44.1277    7.2294 C.3     1  UNL1        0.2055
@<TRIPOS>BOND
     1    32    33    1
     2    33    31    1
     3    22    31    1
     4    23    24   ar
     5    25    26   ar
     6    27    22   ar
     7    21    25    1
     8    21     6    1
     9     1     6    1
    10     1     2    1
    11     2     3    1
    12     3     4    1
    13     4     5    1
    14     4     7    1
    15     5     6    1
    16     8    13   ar
    17     9    10   ar
    18    10    14    1
    19    11     7   ar
    20    16    20   ar
    21    17    19   ar
    22    18    20   ar
    23    12     8    1
    24    28    23    1
    25    28    29    1
    26    14    16    1
    27    22    23   ar
    28    24    25   ar
    29    26    27   ar
    30     7    13   ar
    31     8     9   ar
    32    10    11   ar
    33    16    19   ar
    34    17    18   ar
    35    29    30    1
    36    14    15    1
