@<TRIPOS>MOLECULE
MolPort-010-903-901 ChemDiv-M535-1321 MCULE-7098690132 PubChem-53146014 ZINC000065166013
 34 38 0 0 0
SMALL
GASTEIGER

@<TRIPOS>ATOM
      1 C           7.8196   43.7662    7.2944 C.ar    1  UNL1        0.0515
      2 C           8.4572   42.6053    6.8534 C.ar    1  UNL1        0.0293
      3 C           8.9870   41.6740    7.7606 C.ar    1  UNL1        0.0535
      4 C           8.8810   41.9295    9.1519 C.ar    1  UNL1        0.0670
      5 C           8.2361   43.0961    9.5852 C.ar    1  UNL1        0.0070
      6 C           7.7056   44.0029    8.6683 C.ar    1  UNL1        0.0149
      7 O           8.7843   40.5239   11.0517 O.2     1  UNL1       -0.2699
      8 C           9.5106   41.0585   10.1698 C.2     1  UNL1        0.2503
      9 C          11.8527   41.6844    9.4774 C.3     1  UNL1        0.1152
     10 C          12.9380   40.8808    8.7695 C.3     1  UNL1        0.1137
     11 C          12.5669   38.9763   10.3454 C.3     1  UNL1        0.1137
     12 C          11.4736   39.7709   11.0538 C.3     1  UNL1        0.1152
     13 N          10.9203   40.7752   10.1453 N.am    1  UNL1       -0.2725
     14 N          13.4949   39.8988    9.6973 N.pl3   1  UNL1       -0.2897
     15 C          14.9002   39.8560    9.9942 C.ar    1  UNL1        0.1318
     16 C          17.1200   40.5451    9.4716 C.ar    1  UNL1        0.1003
     17 C          17.6298   39.7975   10.5343 C.ar    1  UNL1        0.0208
     18 C          16.7517   39.0690   11.3366 C.ar    1  UNL1        0.0045
     19 C          15.3822   39.0952   11.0698 C.ar    1  UNL1        0.0343
     20 N          15.7819   40.5585    9.2268 N.ar    1  UNL1       -0.2292
     21 C          10.7693   40.5460    6.3955 C.3     1  UNL1        0.0908
     22 C          11.3443   39.1651    6.0643 C.3     1  UNL1        0.0214
     23 C          10.4671   38.3561    5.1008 C.3     1  UNL1        0.0018
     24 C           8.9609   38.5834    5.2637 C.3     1  UNL1        0.0018
     25 C           8.4415   38.3211    6.6797 C.3     1  UNL1        0.0214
     26 C           9.1097   39.1732    7.7656 C.3     1  UNL1        0.0908
     27 N           9.5741   40.4651    7.2488 N.pl3   1  UNL1       -0.3073
     28 O           8.6642   44.1183    4.4961 O.2     1  UNL1       -0.2748
     29 C           7.7151   44.8103    4.9538 C.2     1  UNL1        0.2256
     30 N           7.2963   44.6788    6.3199 N.am    1  UNL1       -0.2839
     31 H           6.5744   45.2775    6.6193 H       1  UNL1        0.1549
     32 C           7.0504   45.8196    4.0751 C.3     1  UNL1        0.0768
     33 C           7.8722   46.0318    2.8163 C.3     1  UNL1        0.0096
     34 C           7.9342   47.0462    3.9351 C.3     1  UNL1        0.0096
@<TRIPOS>BOND
     1    29    30   am
     2     2     3   ar
     3     3    27    1
     4    21    27    1
     5    21    22    1
     6    22    23    1
     7    23    24    1
     8    24    25    1
     9    25    26    1
    10    26    27    1
    11     4     5   ar
    12     4     8    1
    13     6     1   ar
    14     8    13   am
    15     9    13    1
    16     9    10    1
    17    10    14    1
    18    11    14    1
    19    11    12    1
    20    12    13    1
    21    16    20   ar
    22    17    18   ar
    23    19    15   ar
    24    32    29    1
    25    32    33    1
    26    33    34    1
    27    34    32    1
    28    30     1    1
    29    14    15    1
    30    29    28    2
    31     1     2   ar
    32     3     4   ar
    33     5     6   ar
    34     8     7    2
    35    15    20   ar
    36    16    17   ar
    37    18    19   ar
    38    30    31    1
@<TRIPOS>MOLECULE
MolPort-010-903-901 ChemDiv-M535-1321 MCULE-7098690132 PubChem-53146014 ZINC000065166013
 34 38 0 0 0
SMALL
GASTEIGER

@<TRIPOS>ATOM
      1 C          13.9349   41.5661    7.8365 C.ar    1  UNL1        0.0515
      2 C          13.0322   41.0437    6.9086 C.ar    1  UNL1        0.0293
      3 C          11.7174   40.7150    7.2748 C.ar    1  UNL1        0.0535
      4 C          11.3075   40.9072    8.6192 C.ar    1  UNL1        0.0670
      5 C          12.2198   41.4353    9.5428 C.ar    1  UNL1        0.0070
      6 C          13.5180   41.7670    9.1564 C.ar    1  UNL1        0.0149
      7 O           9.8717   39.3728    9.7045 O.2     1  UNL1       -0.2699
      8 C           9.9785   40.4817    9.1130 C.2     1  UNL1        0.2503
      9 C           8.7717   42.3564    7.9359 C.3     1  UNL1        0.1152
     10 C           8.0771   43.5999    8.4800 C.3     1  UNL1        0.1137
     11 C           6.8718   42.1997   10.1637 C.3     1  UNL1        0.1137
     12 C           7.5693   40.9516    9.6304 C.3     1  UNL1        0.1152
     13 N           8.8217   41.3244    8.9725 N.am    1  UNL1       -0.2725
     14 N           6.8183   43.2123    9.1130 N.pl3   1  UNL1       -0.2897
     15 C           5.5630   43.7768    8.7003 C.ar    1  UNL1        0.1318
     16 C           3.1864   43.8096    8.8629 C.ar    1  UNL1        0.1003
     17 C           3.1109   44.8411    7.9257 C.ar    1  UNL1        0.0208
     18 C           4.2878   45.3439    7.3709 C.ar    1  UNL1        0.0045
     19 C           5.5197   44.8135    7.7562 C.ar    1  UNL1        0.0343
     20 N           4.3964   43.3051    9.2261 N.ar    1  UNL1       -0.2292
     21 C           9.9815   39.0593    6.5277 C.3     1  UNL1        0.0908
     22 C           8.9771   38.7869    5.4035 C.3     1  UNL1        0.0214
     23 C           9.6320   38.2817    4.1119 C.3     1  UNL1        0.0018
     24 C          11.0196   38.8654    3.8282 C.3     1  UNL1        0.0018
     25 C          11.0547   40.3954    3.7868 C.3     1  UNL1        0.0214
     26 C          10.5748   41.0733    5.0759 C.3     1  UNL1        0.0908
     27 N          10.8135   40.2425    6.2610 N.pl3   1  UNL1       -0.3073
     28 O          14.9655   44.1566    6.8903 O.2     1  UNL1       -0.2748
     29 C          15.7417   43.1663    6.9678 C.2     1  UNL1        0.2256
     30 N          15.2639   41.8849    7.4023 N.am    1  UNL1       -0.2839
     31 H          15.9165   41.1478    7.4023 H       1  UNL1        0.1549
     32 C          17.1688   43.3161    6.5515 C.3     1  UNL1        0.0768
     33 C          18.0699   42.5553    7.5076 C.3     1  UNL1        0.0096
     34 C          17.9461   44.0571    7.6247 C.3     1  UNL1        0.0096
@<TRIPOS>BOND
     1    29    30   am
     2     2     3   ar
     3     3    27    1
     4    21    27    1
     5    21    22    1
     6    22    23    1
     7    23    24    1
     8    24    25    1
     9    25    26    1
    10    26    27    1
    11     4     5   ar
    12     4     8    1
    13     6     1   ar
    14     8    13   am
    15     9    13    1
    16     9    10    1
    17    10    14    1
    18    11    14    1
    19    11    12    1
    20    12    13    1
    21    16    20   ar
    22    17    18   ar
    23    19    15   ar
    24    32    29    1
    25    32    33    1
    26    33    34    1
    27    34    32    1
    28    30     1    1
    29    14    15    1
    30    29    28    2
    31     1     2   ar
    32     3     4   ar
    33     5     6   ar
    34     8     7    2
    35    15    20   ar
    36    16    17   ar
    37    18    19   ar
    38    30    31    1
@<TRIPOS>MOLECULE
MolPort-010-903-901 ChemDiv-M535-1321 MCULE-7098690132 PubChem-53146014 ZINC000065166013
 34 38 0 0 0
SMALL
GASTEIGER

@<TRIPOS>ATOM
      1 C          14.9310   42.9395    7.3683 C.ar    1  UNL1        0.0515
      2 C          14.5945   41.8787    8.2111 C.ar    1  UNL1        0.0293
      3 C          13.4078   41.1507    8.0298 C.ar    1  UNL1        0.0535
      4 C          12.5307   41.5133    6.9756 C.ar    1  UNL1        0.0670
      5 C          12.8786   42.5775    6.1325 C.ar    1  UNL1        0.0070
      6 C          14.0680   43.2805    6.3217 C.ar    1  UNL1        0.0149
      7 O          10.1965   41.3856    7.3353 O.2     1  UNL1       -0.2699
      8 C          11.2096   40.8731    6.7857 C.2     1  UNL1        0.2503
      9 C          12.1887   38.8288    5.6818 C.3     1  UNL1        0.1152
     10 C          12.1298   38.3433    4.2376 C.3     1  UNL1        0.1137
     11 C           9.6590   38.7206    4.2031 C.3     1  UNL1        0.1137
     12 C           9.7109   39.2158    5.6456 C.3     1  UNL1        0.1152
     13 N          11.0527   39.7106    5.9538 N.am    1  UNL1       -0.2725
     14 N          10.7906   37.8320    3.9539 N.pl3   1  UNL1       -0.2897
     15 C          10.5814   36.4922    3.4784 C.ar    1  UNL1        0.1318
     16 C           9.2061   34.9257    2.3252 C.ar    1  UNL1        0.1003
     17 C          10.1372   33.9090    2.5430 C.ar    1  UNL1        0.0208
     18 C          11.3091   34.1979    3.2420 C.ar    1  UNL1        0.0045
     19 C          11.5364   35.4917    3.7131 C.ar    1  UNL1        0.0343
     20 N           9.4449   36.1809    2.7919 N.ar    1  UNL1       -0.2292
     21 C          12.2315   40.1852   10.0290 C.3     1  UNL1        0.0908
     22 C          11.9546   38.8584   10.7431 C.3     1  UNL1        0.0214
     23 C          13.1602   38.3268   11.5281 C.3     1  UNL1        0.0018
     24 C          14.5208   38.6311   10.8933 C.3     1  UNL1        0.0018
     25 C          14.6611   38.1321    9.4529 C.3     1  UNL1        0.0214
     26 C          13.6153   38.6972    8.4839 C.3     1  UNL1        0.0908
     27 N          13.1465   40.0270    8.8883 N.pl3   1  UNL1       -0.3073
     28 O          17.1610   42.1710    9.1303 O.2     1  UNL1       -0.2748
     29 C          17.2380   43.2304    8.4514 C.2     1  UNL1        0.2256
     30 N          16.1580   43.6440    7.6020 N.am    1  UNL1       -0.2839
     31 H          16.2711   44.5008    7.1305 H       1  UNL1        0.1549
     32 C          18.4505   44.0950    8.5725 C.3     1  UNL1        0.0768
     33 C          18.3445   45.2723    7.6197 C.3     1  UNL1        0.0096
     34 C          19.2205   44.0931    7.2640 C.3     1  UNL1        0.0096
@<TRIPOS>BOND
     1    29    30   am
     2     2     3   ar
     3     3    27    1
     4    21    27    1
     5    21    22    1
     6    22    23    1
     7    23    24    1
     8    24    25    1
     9    25    26    1
    10    26    27    1
    11     4     5   ar
    12     4     8    1
    13     6     1   ar
    14     8    13   am
    15     9    13    1
    16     9    10    1
    17    10    14    1
    18    11    14    1
    19    11    12    1
    20    12    13    1
    21    16    20   ar
    22    17    18   ar
    23    19    15   ar
    24    32    29    1
    25    32    33    1
    26    33    34    1
    27    34    32    1
    28    30     1    1
    29    14    15    1
    30    29    28    2
    31     1     2   ar
    32     3     4   ar
    33     5     6   ar
    34     8     7    2
    35    15    20   ar
    36    16    17   ar
    37    18    19   ar
    38    30    31    1
@<TRIPOS>MOLECULE
MolPort-010-903-901 ChemDiv-M535-1321 MCULE-7098690132 PubChem-53146014 ZINC000065166013
 34 38 0 0 0
SMALL
GASTEIGER

@<TRIPOS>ATOM
      1 C          13.5742   42.5956    7.0758 C.ar    1  UNL1        0.0515
      2 C          12.6859   41.6899    6.4930 C.ar    1  UNL1        0.0293
      3 C          11.6939   41.0494    7.2524 C.ar    1  UNL1        0.0535
      4 C          11.6055   41.3219    8.6417 C.ar    1  UNL1        0.0670
      5 C          12.4995   42.2351    9.2171 C.ar    1  UNL1        0.0070
      6 C          13.4702   42.8703    8.4433 C.ar    1  UNL1        0.0149
      7 O          11.0807   39.6125   10.1898 O.2     1  UNL1       -0.2699
      8 C          10.6653   40.6062    9.5334 C.2     1  UNL1        0.2503
      9 C           8.6544   41.8583    8.6702 C.3     1  UNL1        0.1152
     10 C           7.7709   42.9126    9.3279 C.3     1  UNL1        0.1137
     11 C           7.5726   41.4842   11.3696 C.3     1  UNL1        0.1137
     12 C           8.4632   40.4281   10.7215 C.3     1  UNL1        0.1152
     13 N           9.3068   41.0477    9.6994 N.am    1  UNL1       -0.2725
     14 N           6.9196   42.2735   10.3290 N.pl3   1  UNL1       -0.2897
     15 C           5.4877   42.3835   10.2806 C.ar    1  UNL1        0.1318
     16 C           3.5352   43.1503    9.1513 C.ar    1  UNL1        0.1003
     17 C           2.7178   42.6204   10.1508 C.ar    1  UNL1        0.0208
     18 C           3.3042   41.9614   11.2312 C.ar    1  UNL1        0.0045
     19 C           4.6927   41.8401   11.3008 C.ar    1  UNL1        0.0343
     20 N           4.8869   43.0223    9.2362 N.ar    1  UNL1       -0.2292
     21 C           9.9796   40.6873    5.4515 C.3     1  UNL1        0.0908
     22 C           9.1573   39.5888    4.7701 C.3     1  UNL1        0.0214
     23 C           7.9810   39.0935    5.6205 C.3     1  UNL1        0.0018
     24 C           8.2425   39.0847    7.1299 C.3     1  UNL1        0.0018
     25 C           9.4743   38.2751    7.5434 C.3     1  UNL1        0.0214
     26 C          10.7841   38.7438    6.8979 C.3     1  UNL1        0.0908
     27 N          10.7659   40.1768    6.5848 N.pl3   1  UNL1       -0.3073
     28 O          16.1784   43.7072    7.8822 O.2     1  UNL1       -0.2748
     29 C          15.8374   43.7323    6.6689 C.2     1  UNL1        0.2256
     30 N          14.5647   43.2202    6.2481 N.am    1  UNL1       -0.2839
     31 H          14.3491   43.3067    5.2914 H       1  UNL1        0.1549
     32 C          16.7502   44.3515    5.6611 C.3     1  UNL1        0.0768
     33 C          17.8807   43.3941    5.3288 C.3     1  UNL1        0.0096
     34 C          18.1280   44.5540    6.2658 C.3     1  UNL1        0.0096
@<TRIPOS>BOND
     1    29    30   am
     2     2     3   ar
     3     3    27    1
     4    21    27    1
     5    21    22    1
     6    22    23    1
     7    23    24    1
     8    24    25    1
     9    25    26    1
    10    26    27    1
    11     4     5   ar
    12     4     8    1
    13     6     1   ar
    14     8    13   am
    15     9    13    1
    16     9    10    1
    17    10    14    1
    18    11    14    1
    19    11    12    1
    20    12    13    1
    21    16    20   ar
    22    17    18   ar
    23    19    15   ar
    24    32    29    1
    25    32    33    1
    26    33    34    1
    27    34    32    1
    28    30     1    1
    29    14    15    1
    30    29    28    2
    31     1     2   ar
    32     3     4   ar
    33     5     6   ar
    34     8     7    2
    35    15    20   ar
    36    16    17   ar
    37    18    19   ar
    38    30    31    1
@<TRIPOS>MOLECULE
MolPort-010-903-901 ChemDiv-M535-1321 MCULE-7098690132 PubChem-53146014 ZINC000065166013
 34 38 0 0 0
SMALL
GASTEIGER

@<TRIPOS>ATOM
      1 C          13.6176   42.3530    7.1460 C.ar    1  UNL1        0.0515
      2 C          13.0247   42.3917    8.4093 C.ar    1  UNL1        0.0293
      3 C          11.7944   41.7625    8.6576 C.ar    1  UNL1        0.0535
      4 C          11.1390   41.0867    7.5966 C.ar    1  UNL1        0.0670
      5 C          11.7436   41.0503    6.3326 C.ar    1  UNL1        0.0070
      6 C          12.9721   41.6712    6.1092 C.ar    1  UNL1        0.0149
      7 O           9.6745   39.2421    7.8135 O.2     1  UNL1       -0.2699
      8 C           9.7896   40.4963    7.7442 C.2     1  UNL1        0.2503
      9 C           8.6181   42.6912    7.3362 C.3     1  UNL1        0.1152
     10 C           7.8327   43.5989    8.2764 C.3     1  UNL1        0.1137
     11 C           6.5412   41.6288    9.1125 C.3     1  UNL1        0.1137
     12 C           7.3288   40.7125    8.1806 C.3     1  UNL1        0.1152
     13 N           8.6180   41.3228    7.8554 N.am    1  UNL1       -0.2725
     14 N           6.5398   42.9855    8.5723 N.pl3   1  UNL1       -0.2897
     15 C           5.3040   43.6714    8.3130 C.ar    1  UNL1        0.1318
     16 C           2.9673   43.8940    8.7199 C.ar    1  UNL1        0.1003
     17 C           2.8900   44.9715    7.8362 C.ar    1  UNL1        0.0208
     18 C           4.0456   45.4003    7.1833 C.ar    1  UNL1        0.0045
     19 C           5.2584   44.7516    7.4191 C.ar    1  UNL1        0.0343
     20 N           4.1585   43.2740    8.9372 N.ar    1  UNL1       -0.2292
     21 C          11.3135   40.5561   10.8084 C.3     1  UNL1        0.0908
     22 C          10.8445   40.7933   12.2475 C.3     1  UNL1        0.0214
     23 C           9.3364   41.0475   12.3617 C.3     1  UNL1        0.0018
     24 C           8.7247   41.8064   11.1799 C.3     1  UNL1        0.0018
     25 C           9.3918   43.1541   10.8934 C.3     1  UNL1        0.0214
     26 C          10.8938   43.0652   10.5970 C.3     1  UNL1        0.0908
     27 N          11.2647   41.7802    9.9945 N.pl3   1  UNL1       -0.3073
     28 O          14.1581   44.8459    5.6759 O.2     1  UNL1       -0.2748
     29 C          15.1039   44.2420    6.2502 C.2     1  UNL1        0.2256
     30 N          14.8764   43.0125    6.9542 N.am    1  UNL1       -0.2839
     31 H          15.6670   42.5761    7.3463 H       1  UNL1        0.1549
     32 C          16.4916   44.7872    6.1527 C.3     1  UNL1        0.0768
     33 C          17.4209   43.7376    5.5699 C.3     1  UNL1        0.0096
     34 C          17.4219   44.0002    7.0583 C.3     1  UNL1        0.0096
@<TRIPOS>BOND
     1    29    30   am
     2     2     3   ar
     3     3    27    1
     4    21    27    1
     5    21    22    1
     6    22    23    1
     7    23    24    1
     8    24    25    1
     9    25    26    1
    10    26    27    1
    11     4     5   ar
    12     4     8    1
    13     6     1   ar
    14     8    13   am
    15     9    13    1
    16     9    10    1
    17    10    14    1
    18    11    14    1
    19    11    12    1
    20    12    13    1
    21    16    20   ar
    22    17    18   ar
    23    19    15   ar
    24    32    29    1
    25    32    33    1
    26    33    34    1
    27    34    32    1
    28    30     1    1
    29    14    15    1
    30    29    28    2
    31     1     2   ar
    32     3     4   ar
    33     5     6   ar
    34     8     7    2
    35    15    20   ar
    36    16    17   ar
    37    18    19   ar
    38    30    31    1
@<TRIPOS>MOLECULE
MolPort-010-903-901 ChemDiv-M535-1321 MCULE-7098690132 PubChem-53146014 ZINC000065166013
 34 38 0 0 0
SMALL
GASTEIGER

@<TRIPOS>ATOM
      1 C          14.0938   42.1424    6.9025 C.ar    1  UNL1        0.0515
      2 C          13.8700   41.3372    8.0207 C.ar    1  UNL1        0.0293
      3 C          12.6722   40.6218    8.1768 C.ar    1  UNL1        0.0535
      4 C          11.6675   40.7335    7.1816 C.ar    1  UNL1        0.0670
      5 C          11.9026   41.5416    6.0609 C.ar    1  UNL1        0.0070
      6 C          13.1042   42.2348    5.9183 C.ar    1  UNL1        0.0149
      7 O          10.2372   38.8504    7.2328 O.2     1  UNL1       -0.2699
      8 C          10.3350   40.1047    7.3239 C.2     1  UNL1        0.2503
      9 C           9.1192   42.3128    7.2755 C.3     1  UNL1        0.1152
     10 C           8.3792   43.0747    8.3696 C.3     1  UNL1        0.1137
     11 C           7.1583   40.9888    9.0073 C.3     1  UNL1        0.1137
     12 C           7.9010   40.2174    7.9202 C.3     1  UNL1        0.1152
     13 N           9.1631   40.8882    7.6081 N.am    1  UNL1       -0.2725
     14 N           7.1119   42.4045    8.6525 N.pl3   1  UNL1       -0.2897
     15 C           5.8562   43.0963    8.5548 C.ar    1  UNL1        0.1318
     16 C           3.5501   43.2350    9.1366 C.ar    1  UNL1        0.1003
     17 C           3.4055   44.4048    8.3890 C.ar    1  UNL1        0.0208
     18 C           4.5115   44.9229    7.7155 C.ar    1  UNL1        0.0045
     19 C           5.7425   44.2704    7.7955 C.ar    1  UNL1        0.0343
     20 N           4.7580   42.6128    9.2029 N.ar    1  UNL1       -0.2292
     21 C          13.6710   39.5401   10.2128 C.3     1  UNL1        0.0908
     22 C          13.2970   38.7159   11.4488 C.3     1  UNL1        0.0214
     23 C          13.0097   37.2427   11.1334 C.3     1  UNL1        0.0018
     24 C          12.3514   36.9970    9.7722 C.3     1  UNL1        0.0018
     25 C          11.0459   37.7689    9.5639 C.3     1  UNL1        0.0214
     26 C          11.1851   39.2910    9.6890 C.3     1  UNL1        0.0908
     27 N          12.5251   39.7574    9.3167 N.pl3   1  UNL1       -0.3073
     28 O          14.6139   44.7277    5.5934 O.2     1  UNL1       -0.2748
     29 C          15.5549   44.1200    6.1715 C.2     1  UNL1        0.2256
     30 N          15.3383   42.8472    6.7976 N.am    1  UNL1       -0.2839
     31 H          16.1262   42.4124    7.1969 H       1  UNL1        0.1549
     32 C          16.9279   44.7092    6.1598 C.3     1  UNL1        0.0768
     33 C          17.9495   43.6358    5.8299 C.3     1  UNL1        0.0096
     34 C          17.7678   44.0869    7.2609 C.3     1  UNL1        0.0096
@<TRIPOS>BOND
     1    29    30   am
     2     2     3   ar
     3     3    27    1
     4    21    27    1
     5    21    22    1
     6    22    23    1
     7    23    24    1
     8    24    25    1
     9    25    26    1
    10    26    27    1
    11     4     5   ar
    12     4     8    1
    13     6     1   ar
    14     8    13   am
    15     9    13    1
    16     9    10    1
    17    10    14    1
    18    11    14    1
    19    11    12    1
    20    12    13    1
    21    16    20   ar
    22    17    18   ar
    23    19    15   ar
    24    32    29    1
    25    32    33    1
    26    33    34    1
    27    34    32    1
    28    30     1    1
    29    14    15    1
    30    29    28    2
    31     1     2   ar
    32     3     4   ar
    33     5     6   ar
    34     8     7    2
    35    15    20   ar
    36    16    17   ar
    37    18    19   ar
    38    30    31    1
@<TRIPOS>MOLECULE
MolPort-010-903-901 ChemDiv-M535-1321 MCULE-7098690132 PubChem-53146014 ZINC000065166013
 34 38 0 0 0
SMALL
GASTEIGER

@<TRIPOS>ATOM
      1 C          14.2621   41.9262    7.2708 C.ar    1  UNL1        0.0515
      2 C          13.9323   40.7623    7.9676 C.ar    1  UNL1        0.0293
      3 C          12.7052   40.1118    7.7622 C.ar    1  UNL1        0.0535
      4 C          11.7805   40.6600    6.8367 C.ar    1  UNL1        0.0670
      5 C          12.1219   41.8270    6.1395 C.ar    1  UNL1        0.0070
      6 C          13.3511   42.4515    6.3486 C.ar    1  UNL1        0.0149
      7 O          10.2986   38.9562    6.1331 O.2     1  UNL1       -0.2699
      8 C          10.4228   40.1022    6.6453 C.2     1  UNL1        0.2503
      9 C           9.2827   42.2734    7.2305 C.3     1  UNL1        0.1152
     10 C           8.4573   42.6767    8.4474 C.3     1  UNL1        0.1137
     11 C           7.1178   40.5760    8.2451 C.3     1  UNL1        0.1137
     12 C           7.9449   40.1612    7.0317 C.3     1  UNL1        0.1152
     13 N           9.2511   40.8188    7.0717 N.am    1  UNL1       -0.2725
     14 N           7.1488   42.0296    8.3798 N.pl3   1  UNL1       -0.2897
     15 C           5.9302   42.7905    8.4099 C.ar    1  UNL1        0.1318
     16 C           4.7089   44.7187    7.7273 C.ar    1  UNL1        0.1003
     17 C           3.5891   44.2951    8.4447 C.ar    1  UNL1        0.0208
     18 C           3.6496   43.0960    9.1547 C.ar    1  UNL1        0.0045
     19 C           4.8212   42.3381    9.1403 C.ar    1  UNL1        0.0343
     20 N           5.8424   43.9666    7.7250 N.ar    1  UNL1       -0.2292
     21 C          11.3242   38.8056    9.4052 C.3     1  UNL1        0.0908
     22 C          11.1076   37.3874    9.9426 C.3     1  UNL1        0.0214
     23 C          12.2083   36.9276   10.9067 C.3     1  UNL1        0.0018
     24 C          13.6070   37.4605   10.5808 C.3     1  UNL1        0.0018
     25 C          14.0816   37.1362    9.1619 C.3     1  UNL1        0.0214
     26 C          13.1660   37.6679    8.0526 C.3     1  UNL1        0.0908
     27 N          12.4485   38.8808    8.4599 N.pl3   1  UNL1       -0.3073
     28 O          15.2293   44.5409    6.3246 O.2     1  UNL1       -0.2748
     29 C          15.9651   43.8332    7.0640 C.2     1  UNL1        0.2256
     30 N          15.5316   42.5442    7.5216 N.am    1  UNL1       -0.2839
     31 H          16.1725   42.0305    8.0643 H       1  UNL1        0.1549
     32 C          17.3298   44.3214    7.4271 C.3     1  UNL1        0.0768
     33 C          18.2368   43.1432    7.7340 C.3     1  UNL1        0.0096
     34 C          17.6460   43.9525    8.8655 C.3     1  UNL1        0.0096
@<TRIPOS>BOND
     1    29    30   am
     2     2     3   ar
     3     3    27    1
     4    21    27    1
     5    21    22    1
     6    22    23    1
     7    23    24    1
     8    24    25    1
     9    25    26    1
    10    26    27    1
    11     4     5   ar
    12     4     8    1
    13     6     1   ar
    14     8    13   am
    15     9    13    1
    16     9    10    1
    17    10    14    1
    18    11    14    1
    19    11    12    1
    20    12    13    1
    21    16    20   ar
    22    17    18   ar
    23    19    15   ar
    24    32    29    1
    25    32    33    1
    26    33    34    1
    27    34    32    1
    28    30     1    1
    29    14    15    1
    30    29    28    2
    31     1     2   ar
    32     3     4   ar
    33     5     6   ar
    34     8     7    2
    35    15    20   ar
    36    16    17   ar
    37    18    19   ar
    38    30    31    1
@<TRIPOS>MOLECULE
MolPort-010-903-901 ChemDiv-M535-1321 MCULE-7098690132 PubChem-53146014 ZINC000065166013
 34 38 0 0 0
SMALL
GASTEIGER

@<TRIPOS>ATOM
      1 C           3.7669   42.0140   11.1631 C.ar    1  UNL1        0.0515
      2 C           5.1493   42.0846   11.3446 C.ar    1  UNL1        0.0293
      3 C           5.9939   42.5723   10.3349 C.ar    1  UNL1        0.0535
      4 C           5.4271   42.9880    9.1027 C.ar    1  UNL1        0.0670
      5 C           4.0380   42.9166    8.9310 C.ar    1  UNL1        0.0070
      6 C           3.2147   42.4404    9.9508 C.ar    1  UNL1        0.0149
      7 O           6.2979   44.6284    7.6382 O.2     1  UNL1       -0.2699
      8 C           6.2544   43.4067    7.9488 C.2     1  UNL1        0.2503
      9 C           6.6931   41.0369    7.2086 C.3     1  UNL1        0.1152
     10 C           7.9641   40.1951    7.2401 C.3     1  UNL1        0.1137
     11 C           9.2482   42.0816    6.2201 C.3     1  UNL1        0.1137
     12 C           7.9824   42.9333    6.1931 C.3     1  UNL1        0.1152
     13 N           7.0413   42.4584    7.2075 N.am    1  UNL1       -0.2725
     14 N           8.8825   40.6680    6.2066 N.pl3   1  UNL1       -0.2897
     15 C           9.3871   39.7886    5.1882 C.ar    1  UNL1        0.1318
     16 C           8.9650   38.3761    3.3168 C.ar    1  UNL1        0.1003
     17 C          10.3237   38.0780    3.2028 C.ar    1  UNL1        0.0208
     18 C          11.2236   38.6502    4.1019 C.ar    1  UNL1        0.0045
     19 C          10.7588   39.5085    5.0991 C.ar    1  UNL1        0.0343
     20 N           8.5304   39.2151    4.2955 N.ar    1  UNL1       -0.2292
     21 C           8.1883   43.7261    9.9269 C.3     1  UNL1        0.0908
     22 C           9.6305   43.7943   10.4392 C.3     1  UNL1        0.0214
     23 C          10.4850   42.5943   10.0125 C.3     1  UNL1        0.0018
     24 C           9.7242   41.2677    9.9224 C.3     1  UNL1        0.0018
     25 C           9.0029   40.8750   11.2144 C.3     1  UNL1        0.0214
     26 C           7.9807   41.9072   11.7059 C.3     1  UNL1        0.0908
     27 N           7.4024   42.6830   10.6034 N.pl3   1  UNL1       -0.3073
     28 O           1.2412   43.1125   12.2032 O.2     1  UNL1       -0.2748
     29 C           1.7145   42.0556   12.7012 C.2     1  UNL1        0.2256
     30 N           2.9555   41.5088   12.2321 N.am    1  UNL1       -0.2839
     31 H           3.2841   40.7029   12.6922 H       1  UNL1        0.1549
     32 C           0.9991   41.3907   13.8319 C.3     1  UNL1        0.0768
     33 C          -0.4283   41.9014   13.9135 C.3     1  UNL1        0.0096
     34 C           0.6130   42.4212   14.8778 C.3     1  UNL1        0.0096
@<TRIPOS>BOND
     1    29    30   am
     2     2     3   ar
     3     3    27    1
     4    21    27    1
     5    21    22    1
     6    22    23    1
     7    23    24    1
     8    24    25    1
     9    25    26    1
    10    26    27    1
    11     4     5   ar
    12     4     8    1
    13     6     1   ar
    14     8    13   am
    15     9    13    1
    16     9    10    1
    17    10    14    1
    18    11    14    1
    19    11    12    1
    20    12    13    1
    21    16    20   ar
    22    17    18   ar
    23    19    15   ar
    24    32    29    1
    25    32    33    1
    26    33    34    1
    27    34    32    1
    28    30     1    1
    29    14    15    1
    30    29    28    2
    31     1     2   ar
    32     3     4   ar
    33     5     6   ar
    34     8     7    2
    35    15    20   ar
    36    16    17   ar
    37    18    19   ar
    38    30    31    1
@<TRIPOS>MOLECULE
MolPort-010-903-901 ChemDiv-M535-1321 MCULE-7098690132 PubChem-53146014 ZINC000065166013
 34 38 0 0 0
SMALL
GASTEIGER

@<TRIPOS>ATOM
      1 C           5.5281   40.9219    8.3220 C.ar    1  UNL1        0.0515
      2 C           6.6440   41.3502    9.0431 C.ar    1  UNL1        0.0293
      3 C           7.9326   41.3067    8.4876 C.ar    1  UNL1        0.0535
      4 C           8.0997   40.8042    7.1717 C.ar    1  UNL1        0.0670
      5 C           6.9731   40.3796    6.4542 C.ar    1  UNL1        0.0070
      6 C           5.6997   40.4422    7.0193 C.ar    1  UNL1        0.0149
      7 O           9.7400   41.3054    5.5431 O.2     1  UNL1       -0.2699
      8 C           9.4328   40.6186    6.5555 C.2     1  UNL1        0.2503
      9 C           9.9666   38.5913    7.9560 C.3     1  UNL1        0.1152
     10 C          10.9619   38.3920    9.0938 C.3     1  UNL1        0.1137
     11 C          12.7532   39.4744    7.7271 C.3     1  UNL1        0.1137
     12 C          11.7609   39.6852    6.5871 C.3     1  UNL1        0.1152
     13 N          10.3961   39.7082    7.1133 N.am    1  UNL1       -0.2725
     14 N          12.3169   38.3486    8.5484 N.pl3   1  UNL1       -0.2897
     15 C          13.1854   37.2271    8.7781 C.ar    1  UNL1        0.1318
     16 C          15.2755   36.1503    8.3944 C.ar    1  UNL1        0.1003
     17 C          14.8965   35.0723    9.1959 C.ar    1  UNL1        0.0208
     18 C          13.6373   35.0801    9.7957 C.ar    1  UNL1        0.0045
     19 C          12.7757   36.1584    9.5893 C.ar    1  UNL1        0.0343
     20 N          14.4222   37.1925    8.2046 N.ar    1  UNL1       -0.2292
     21 C          10.2270   42.3285    8.5562 C.3     1  UNL1        0.0908
     22 C          11.2342   42.9724    9.5143 C.3     1  UNL1        0.0214
     23 C          11.9481   41.9591   10.4176 C.3     1  UNL1        0.0018
     24 C          11.0904   40.7610   10.8366 C.3     1  UNL1        0.0018
     25 C           9.7814   41.1452   11.5313 C.3     1  UNL1        0.0214
     26 C           8.8613   42.0417   10.6937 C.3     1  UNL1        0.0908
     27 N           9.0350   41.8226    9.2537 N.pl3   1  UNL1       -0.3073
     28 O           4.7503   42.4187   10.7349 O.2     1  UNL1       -0.2748
     29 C           3.8839   41.7518   10.1074 C.2     1  UNL1        0.2256
     30 N           4.2370   40.9928    8.9420 N.am    1  UNL1       -0.2839
     31 H           3.5179   40.4657    8.5245 H       1  UNL1        0.1549
     32 C           2.4791   41.7094   10.6144 C.3     1  UNL1        0.0768
     33 C           2.3620   42.5317   11.8852 C.3     1  UNL1        0.0096
     34 C           2.4379   41.0245   11.9687 C.3     1  UNL1        0.0096
@<TRIPOS>BOND
     1    29    30   am
     2     2     3   ar
     3     3    27    1
     4    21    27    1
     5    21    22    1
     6    22    23    1
     7    23    24    1
     8    24    25    1
     9    25    26    1
    10    26    27    1
    11     4     5   ar
    12     4     8    1
    13     6     1   ar
    14     8    13   am
    15     9    13    1
    16     9    10    1
    17    10    14    1
    18    11    14    1
    19    11    12    1
    20    12    13    1
    21    16    20   ar
    22    17    18   ar
    23    19    15   ar
    24    32    29    1
    25    32    33    1
    26    33    34    1
    27    34    32    1
    28    30     1    1
    29    14    15    1
    30    29    28    2
    31     1     2   ar
    32     3     4   ar
    33     5     6   ar
    34     8     7    2
    35    15    20   ar
    36    16    17   ar
    37    18    19   ar
    38    30    31    1
@<TRIPOS>MOLECULE
MolPort-010-903-901 ChemDiv-M535-1321 MCULE-7098690132 PubChem-53146014 ZINC000065166013
 34 38 0 0 0
SMALL
GASTEIGER

@<TRIPOS>ATOM
      1 C          14.8309   41.7152    8.5326 C.ar    1  UNL1        0.0515
      2 C          13.5263   41.2381    8.3940 C.ar    1  UNL1        0.0293
      3 C          13.1465   39.9904    8.9136 C.ar    1  UNL1        0.0535
      4 C          14.1152   39.1972    9.5803 C.ar    1  UNL1        0.0670
      5 C          15.4216   39.6861    9.7175 C.ar    1  UNL1        0.0070
      6 C          15.7761   40.9336    9.2049 C.ar    1  UNL1        0.0149
      7 O          12.8971   37.6490   10.8892 O.2     1  UNL1       -0.2699
      8 C          13.8277   37.8254   10.0562 C.2     1  UNL1        0.2503
      9 C          15.8896   36.8551    8.9775 C.3     1  UNL1        0.1152
     10 C          16.0520   35.9232    7.7816 C.3     1  UNL1        0.1137
     11 C          14.2979   34.4066    8.7152 C.3     1  UNL1        0.1137
     12 C          14.1234   35.3386    9.9108 C.3     1  UNL1        0.1152
     13 N          14.5549   36.6904    9.5551 N.am    1  UNL1       -0.2725
     14 N          15.6384   34.5740    8.1609 N.pl3   1  UNL1       -0.2897
     15 C          16.5240   33.4500    8.0286 C.ar    1  UNL1        0.1318
     16 C          18.1751   32.2885    6.7636 C.ar    1  UNL1        0.1003
     17 C          18.2508   31.2875    7.7333 C.ar    1  UNL1        0.0208
     18 C          17.4450   31.3774    8.8683 C.ar    1  UNL1        0.0045
     19 C          16.5775   32.4598    9.0209 C.ar    1  UNL1        0.0343
     20 N          17.3234   33.3362    6.9297 N.ar    1  UNL1       -0.2292
     21 C          11.3786   38.6685    7.7137 C.3     1  UNL1        0.0908
     22 C           9.9175   38.2224    7.8289 C.3     1  UNL1        0.0214
     23 C           8.9139   39.3408    7.5216 C.3     1  UNL1        0.0018
     24 C           9.3650   40.7402    7.9514 C.3     1  UNL1        0.0018
     25 C           9.7262   40.8493    9.4351 C.3     1  UNL1        0.0214
     26 C          10.8408   39.8972    9.8856 C.3     1  UNL1        0.0908
     27 N          11.7728   39.5809    8.7978 N.pl3   1  UNL1       -0.3073
     28 O          17.3885   42.5954    7.3700 O.2     1  UNL1       -0.2748
     29 C          16.4103   43.3899    7.4010 C.2     1  UNL1        0.2256
     30 N          15.1584   42.9985    7.9826 N.am    1  UNL1       -0.2839
     31 H          14.4504   43.6822    8.0067 H       1  UNL1        0.1549
     32 C          16.5727   44.7774    6.8710 C.3     1  UNL1        0.0768
     33 C          15.6615   44.9848    5.6744 C.3     1  UNL1        0.0096
     34 C          17.1362   44.7308    5.4620 C.3     1  UNL1        0.0096
@<TRIPOS>BOND
     1    29    30   am
     2     2     3   ar
     3     3    27    1
     4    21    27    1
     5    21    22    1
     6    22    23    1
     7    23    24    1
     8    24    25    1
     9    25    26    1
    10    26    27    1
    11     4     5   ar
    12     4     8    1
    13     6     1   ar
    14     8    13   am
    15     9    13    1
    16     9    10    1
    17    10    14    1
    18    11    14    1
    19    11    12    1
    20    12    13    1
    21    16    20   ar
    22    17    18   ar
    23    19    15   ar
    24    32    29    1
    25    32    33    1
    26    33    34    1
    27    34    32    1
    28    30     1    1
    29    14    15    1
    30    29    28    2
    31     1     2   ar
    32     3     4   ar
    33     5     6   ar
    34     8     7    2
    35    15    20   ar
    36    16    17   ar
    37    18    19   ar
    38    30    31    1
