@<TRIPOS>MOLECULE
Molport-053-137-771 MCULE-5500560604
 25 27 0 0 0
SMALL
GASTEIGER

@<TRIPOS>ATOM
      1 C          13.3299   42.3659    7.5641 C.ar    1  UNL1        0.2218
      2 C          11.4810   42.1850    9.0326 C.ar    1  UNL1        0.1031
      3 C          12.0737   41.0926    9.6618 C.ar    1  UNL1        0.0355
      4 C          13.3202   40.6540    9.2017 C.ar    1  UNL1        0.0644
      5 N          12.1154   42.7997    8.0008 N.ar    1  UNL1       -0.2120
      6 N          13.9180   41.2973    8.1643 N.ar    1  UNL1       -0.2179
      7 C          14.0068   39.4853    9.8324 C.3     1  UNL1        0.0564
      8 C          13.6884   39.4004   11.3280 C.3     1  UNL1        0.0087
      9 C          14.4932   38.2865   12.0017 C.3     1  UNL1        0.0178
     10 C          15.9352   38.2028   11.4792 C.3     1  UNL1        0.0725
     11 C          15.5205   39.5151    9.5474 C.3     1  UNL1        0.0784
     12 N          16.3146   39.4268   10.7748 N.3     1  UNL1       -0.2647
     13 C          17.7006   39.2712   10.3655 C.3     1  UNL1        0.1582
     14 C          17.9978   37.8332   10.1106 C.2     1  UNL1        0.2357
     15 N          18.7806   37.0887   11.0370 N.am    1  UNL1       -0.3277
     16 O          17.5593   37.2770    9.0714 O.2     1  UNL1       -0.2738
     17 H          19.1246   37.5224   11.8511 H       1  UNL1        0.1450
     18 H          18.9781   36.1399   10.8638 H       1  UNL1        0.1450
     19 N          13.9985   43.0130    6.4758 N.pl3   1  UNL1       -0.2628
     20 H          13.4593   43.2314    5.6815 H       1  UNL1        0.1570
     21 C          15.3843   43.3692    6.4449 C.ar    1  UNL1        0.1657
     22 C          17.7764   43.7355    6.8902 C.ar    1  UNL1        0.0588
     23 C          17.3145   44.1950    5.6553 C.ar    1  UNL1        0.1079
     24 N          15.9913   43.9901    5.4130 N.ar    1  UNL1       -0.2224
     25 S          16.4582   43.0501    7.6864 S.2     1  UNL1       -0.0508
@<TRIPOS>BOND
     1     1    19    1
     2     1     6   ar
     3     2     5   ar
     4     3     4   ar
     5     7     4    1
     6     7     8    1
     7     8     9    1
     8     9    10    1
     9    10    12    1
    10    13    12    1
    11    13    14    1
    12    14    15   am
    13    11    12    1
    14    11     7    1
    15    21    25   ar
    16    22    25   ar
    17    23    24   ar
    18    19    21    1
    19     1     5   ar
    20     2     3   ar
    21     4     6   ar
    22    14    16    2
    23    21    24   ar
    24    22    23   ar
    25    15    17    1
    26    15    18    1
    27    19    20    1
@<TRIPOS>MOLECULE
Molport-053-137-771 MCULE-5500560604
 25 27 0 0 0
SMALL
GASTEIGER

@<TRIPOS>ATOM
      1 C          16.4608   40.8470    9.1536 C.ar    1  UNL1        0.2218
      2 C          16.6703   39.1127   10.7524 C.ar    1  UNL1        0.1031
      3 C          15.3024   38.8611   10.6747 C.ar    1  UNL1        0.0355
      4 C          14.5290   39.6426    9.8093 C.ar    1  UNL1        0.0644
      5 N          17.2232   40.0953    9.9947 N.ar    1  UNL1       -0.2120
      6 N          15.1235   40.6172    9.0716 N.ar    1  UNL1       -0.2179
      7 C          13.0554   39.4245    9.6833 C.3     1  UNL1        0.0564
      8 C          12.5933   39.6057    8.2345 C.3     1  UNL1        0.0087
      9 C          11.0695   39.5141    8.1251 C.3     1  UNL1        0.0178
     10 C          10.3523   40.2091    9.2922 C.3     1  UNL1        0.0725
     11 C          12.2792   40.3163   10.6710 C.3     1  UNL1        0.0784
     12 N          11.2525   41.1175   10.0010 N.3     1  UNL1       -0.2647
     13 C          10.4741   41.7591   11.0475 C.3     1  UNL1        0.1582
     14 C          10.1700   43.1670   10.6652 C.2     1  UNL1        0.2357
     15 N           8.9860   43.7980   11.1399 N.am    1  UNL1       -0.3277
     16 O          10.9596   43.7981    9.9171 O.2     1  UNL1       -0.2738
     17 H           8.3666   43.3055   11.7256 H       1  UNL1        0.1450
     18 H           8.7862   44.7270   10.8825 H       1  UNL1        0.1450
     19 N          17.0431   41.8836    8.3557 N.pl3   1  UNL1       -0.2628
     20 H          18.0232   41.9731    8.3786 H       1  UNL1        0.1570
     21 C          16.3207   42.8005    7.5275 C.ar    1  UNL1        0.1657
     22 C          15.5575   44.6590    6.1071 C.ar    1  UNL1        0.0588
     23 C          14.6206   43.6494    6.3358 C.ar    1  UNL1        0.1079
     24 N          15.0468   42.6235    7.1216 N.ar    1  UNL1       -0.2224
     25 S          16.9630   44.2238    6.9294 S.2     1  UNL1       -0.0508
@<TRIPOS>BOND
     1     1    19    1
     2     1     6   ar
     3     2     5   ar
     4     3     4   ar
     5     7     4    1
     6     7     8    1
     7     8     9    1
     8     9    10    1
     9    10    12    1
    10    13    12    1
    11    13    14    1
    12    14    15   am
    13    11    12    1
    14    11     7    1
    15    21    25   ar
    16    22    25   ar
    17    23    24   ar
    18    19    21    1
    19     1     5   ar
    20     2     3   ar
    21     4     6   ar
    22    14    16    2
    23    21    24   ar
    24    22    23   ar
    25    15    17    1
    26    15    18    1
    27    19    20    1
@<TRIPOS>MOLECULE
Molport-053-137-771 MCULE-5500560604
 25 27 0 0 0
SMALL
GASTEIGER

@<TRIPOS>ATOM
      1 C          12.3533   41.6046    6.7429 C.ar    1  UNL1        0.2218
      2 C          10.6643   40.1261    7.4971 C.ar    1  UNL1        0.1031
      3 C          11.4518   39.7656    8.5881 C.ar    1  UNL1        0.0355
      4 C          12.7131   40.3559    8.7237 C.ar    1  UNL1        0.0644
      5 N          11.1254   41.0343    6.5985 N.ar    1  UNL1       -0.2120
      6 N          13.1357   41.2583    7.7992 N.ar    1  UNL1       -0.2179
      7 C          13.6073   40.0086    9.8704 C.3     1  UNL1        0.0564
      8 C          15.0753   39.9785    9.4352 C.3     1  UNL1        0.0087
      9 C          15.9786   39.4947   10.5720 C.3     1  UNL1        0.0178
     10 C          15.3523   38.3435   11.3729 C.3     1  UNL1        0.0725
     11 C          13.1590   38.6965   10.5418 C.3     1  UNL1        0.0784
     12 N          14.2506   37.7247   10.6369 N.3     1  UNL1       -0.2647
     13 C          13.7602   36.6236   11.4491 C.3     1  UNL1        0.1582
     14 C          12.9670   35.6839   10.6073 C.2     1  UNL1        0.2357
     15 N          11.7095   35.1996   11.0651 N.am    1  UNL1       -0.3277
     16 O          13.4122   35.3140    9.4908 O.2     1  UNL1       -0.2738
     17 H          11.3594   35.4881   11.9389 H       1  UNL1        0.1450
     18 H          11.1897   34.5762   10.5081 H       1  UNL1        0.1450
     19 N          12.8401   42.5612    5.7952 N.pl3   1  UNL1       -0.2628
     20 H          12.3657   42.6250    4.9350 H       1  UNL1        0.1570
     21 C          13.9582   43.4326    5.9929 C.ar    1  UNL1        0.1657
     22 C          16.0847   44.5004    6.6191 C.ar    1  UNL1        0.0588
     23 C          15.2364   45.2674    5.8183 C.ar    1  UNL1        0.1079
     24 N          14.0617   44.6731    5.4740 N.ar    1  UNL1       -0.2224
     25 S          15.3108   43.0275    6.8888 S.2     1  UNL1       -0.0508
@<TRIPOS>BOND
     1     1    19    1
     2     1     6   ar
     3     2     5   ar
     4     3     4   ar
     5     7     4    1
     6     7     8    1
     7     8     9    1
     8     9    10    1
     9    10    12    1
    10    13    12    1
    11    13    14    1
    12    14    15   am
    13    11    12    1
    14    11     7    1
    15    21    25   ar
    16    22    25   ar
    17    23    24   ar
    18    19    21    1
    19     1     5   ar
    20     2     3   ar
    21     4     6   ar
    22    14    16    2
    23    21    24   ar
    24    22    23   ar
    25    15    17    1
    26    15    18    1
    27    19    20    1
@<TRIPOS>MOLECULE
Molport-053-137-771 MCULE-5500560604
 25 27 0 0 0
SMALL
GASTEIGER

@<TRIPOS>ATOM
      1 C          16.6247   41.6725    8.5811 C.ar    1  UNL1        0.2218
      2 C          17.0214   39.8811   10.0782 C.ar    1  UNL1        0.1031
      3 C          15.6648   39.5642   10.0755 C.ar    1  UNL1        0.0355
      4 C          14.7999   40.3436    9.2995 C.ar    1  UNL1        0.0644
      5 N          17.4757   40.9234    9.3351 N.ar    1  UNL1       -0.2120
      6 N          15.2974   41.3791    8.5732 N.ar    1  UNL1       -0.2179
      7 C          13.3332   40.0569    9.2570 C.3     1  UNL1        0.0564
      8 C          12.6326   40.5804   10.5142 C.3     1  UNL1        0.0087
      9 C          11.1577   40.1724   10.5351 C.3     1  UNL1        0.0178
     10 C          10.9353   38.7402   10.0264 C.3     1  UNL1        0.0725
     11 C          13.0708   38.5591    9.0100 C.3     1  UNL1        0.0784
     12 N          12.1846   37.9802   10.0222 N.3     1  UNL1       -0.2647
     13 C          11.8637   36.6345    9.5764 C.3     1  UNL1        0.1582
     14 C          12.3568   35.6382   10.5690 C.2     1  UNL1        0.2357
     15 N          11.4374   34.9471   11.4071 N.am    1  UNL1       -0.3277
     16 O          13.5895   35.4107   10.6696 O.2     1  UNL1       -0.2738
     17 H          10.4720   35.1239   11.3297 H       1  UNL1        0.1450
     18 H          11.7668   34.2922   12.0642 H       1  UNL1        0.1450
     19 N          17.1032   42.7719    7.7985 N.pl3   1  UNL1       -0.2628
     20 H          18.0655   42.9740    7.8463 H       1  UNL1        0.1570
     21 C          16.3007   43.6019    6.9526 C.ar    1  UNL1        0.1657
     22 C          14.5532   44.6153    5.5478 C.ar    1  UNL1        0.0588
     23 C          15.7047   45.3840    5.7279 C.ar    1  UNL1        0.1079
     24 N          16.6684   44.8201    6.5057 N.ar    1  UNL1       -0.2224
     25 S          14.7767   43.1825    6.4070 S.2     1  UNL1       -0.0508
@<TRIPOS>BOND
     1     1    19    1
     2     1     6   ar
     3     2     5   ar
     4     3     4   ar
     5     7     4    1
     6     7     8    1
     7     8     9    1
     8     9    10    1
     9    10    12    1
    10    13    12    1
    11    13    14    1
    12    14    15   am
    13    11    12    1
    14    11     7    1
    15    21    25   ar
    16    22    25   ar
    17    23    24   ar
    18    19    21    1
    19     1     5   ar
    20     2     3   ar
    21     4     6   ar
    22    14    16    2
    23    21    24   ar
    24    22    23   ar
    25    15    17    1
    26    15    18    1
    27    19    20    1
@<TRIPOS>MOLECULE
Molport-053-137-771 MCULE-5500560604
 25 27 0 0 0
SMALL
GASTEIGER

@<TRIPOS>ATOM
      1 C          12.3488   41.4533    6.9016 C.ar    1  UNL1        0.2218
      2 C          12.6310   40.1892    8.8840 C.ar    1  UNL1        0.1031
      3 C          11.2891   39.8165    8.8502 C.ar    1  UNL1        0.0355
      4 C          10.4904   40.2956    7.8061 C.ar    1  UNL1        0.0644
      5 N          13.1352   40.9961    7.9147 N.ar    1  UNL1       -0.2120
      6 N          11.0361   41.1031    6.8586 N.ar    1  UNL1       -0.2179
      7 C           9.0424   39.9348    7.7156 C.3     1  UNL1        0.0564
      8 C           8.6287   39.6758    6.2639 C.3     1  UNL1        0.0087
      9 C           7.1210   39.4370    6.1536 C.3     1  UNL1        0.0178
     10 C           6.3088   40.3650    7.0692 C.3     1  UNL1        0.0725
     11 C           8.1649   40.9980    8.4034 C.3     1  UNL1        0.0784
     12 N           7.1124   41.5013    7.5181 N.3     1  UNL1       -0.2647
     13 C           6.2480   42.3403    8.3313 C.3     1  UNL1        0.1582
     14 C           5.3912   41.4912    9.2065 C.2     1  UNL1        0.2357
     15 N           4.1045   41.0755    8.7628 N.am    1  UNL1       -0.3277
     16 O           5.8045   41.1448   10.3426 O.2     1  UNL1       -0.2738
     17 H           3.7794   41.3457    7.8737 H       1  UNL1        0.1450
     18 H           3.5396   40.5176    9.3449 H       1  UNL1        0.1450
     19 N          12.8798   42.3048    5.8802 N.pl3   1  UNL1       -0.2628
     20 H          12.4870   42.2287    4.9807 H       1  UNL1        0.1570
     21 C          13.9335   43.2573    6.0565 C.ar    1  UNL1        0.1657
     22 C          15.9791   44.4867    6.6552 C.ar    1  UNL1        0.0588
     23 C          15.0786   45.1737    5.8388 C.ar    1  UNL1        0.1079
     24 N          13.9489   44.4901    5.5099 N.ar    1  UNL1       -0.2224
     25 S          15.3114   42.9691    6.9590 S.2     1  UNL1       -0.0508
@<TRIPOS>BOND
     1     1    19    1
     2     1     6   ar
     3     2     5   ar
     4     3     4   ar
     5     7     4    1
     6     7     8    1
     7     8     9    1
     8     9    10    1
     9    10    12    1
    10    13    12    1
    11    13    14    1
    12    14    15   am
    13    11    12    1
    14    11     7    1
    15    21    25   ar
    16    22    25   ar
    17    23    24   ar
    18    19    21    1
    19     1     5   ar
    20     2     3   ar
    21     4     6   ar
    22    14    16    2
    23    21    24   ar
    24    22    23   ar
    25    15    17    1
    26    15    18    1
    27    19    20    1
@<TRIPOS>MOLECULE
Molport-053-137-771 MCULE-5500560604
 25 27 0 0 0
SMALL
GASTEIGER

@<TRIPOS>ATOM
      1 C          16.3020   41.2824    8.8566 C.ar    1  UNL1        0.2218
      2 C          16.8525   39.5792   10.4070 C.ar    1  UNL1        0.1031
      3 C          15.5091   39.2256   10.5120 C.ar    1  UNL1        0.0355
      4 C          14.5708   39.9415    9.7604 C.ar    1  UNL1        0.0644
      5 N          17.2240   40.5953    9.5857 N.ar    1  UNL1       -0.2120
      6 N          14.9868   40.9529    8.9532 N.ar    1  UNL1       -0.2179
      7 C          13.1140   39.6131    9.8317 C.3     1  UNL1        0.0564
      8 C          12.8530   38.1680    9.3970 C.3     1  UNL1        0.0087
      9 C          11.3527   37.8703    9.3418 C.3     1  UNL1        0.0178
     10 C          10.5401   39.0423    8.7714 C.3     1  UNL1        0.0725
     11 C          12.2788   40.6338    9.0355 C.3     1  UNL1        0.0784
     12 N          11.4006   39.9857    8.0589 N.3     1  UNL1       -0.2647
     13 C          10.5391   41.0240    7.5179 C.3     1  UNL1        0.1582
     14 C          10.6745   41.0761    6.0347 C.2     1  UNL1        0.2357
     15 N          10.1234   42.1654    5.3033 N.am    1  UNL1       -0.3277
     16 O          11.2735   40.1523    5.4269 O.2     1  UNL1       -0.2738
     17 H           9.6541   42.8895    5.7774 H       1  UNL1        0.1450
     18 H          10.2115   42.1949    4.3232 H       1  UNL1        0.1450
     19 N          16.6933   42.3543    7.9916 N.pl3   1  UNL1       -0.2628
     20 H          17.6416   42.6186    8.0021 H       1  UNL1        0.1570
     21 C          15.8224   43.0739    7.1129 C.ar    1  UNL1        0.1657
     22 C          14.7373   44.6837    5.6012 C.ar    1  UNL1        0.0588
     23 C          14.0166   43.5159    5.8580 C.ar    1  UNL1        0.1079
     24 N          14.6204   42.6282    6.6942 N.ar    1  UNL1       -0.2224
     25 S          16.1808   44.5729    6.4644 S.2     1  UNL1       -0.0508
@<TRIPOS>BOND
     1     1    19    1
     2     1     6   ar
     3     2     5   ar
     4     3     4   ar
     5     7     4    1
     6     7     8    1
     7     8     9    1
     8     9    10    1
     9    10    12    1
    10    13    12    1
    11    13    14    1
    12    14    15   am
    13    11    12    1
    14    11     7    1
    15    21    25   ar
    16    22    25   ar
    17    23    24   ar
    18    19    21    1
    19     1     5   ar
    20     2     3   ar
    21     4     6   ar
    22    14    16    2
    23    21    24   ar
    24    22    23   ar
    25    15    17    1
    26    15    18    1
    27    19    20    1
@<TRIPOS>MOLECULE
Molport-053-137-771 MCULE-5500560604
 25 27 0 0 0
SMALL
GASTEIGER

@<TRIPOS>ATOM
      1 C          11.7795   41.5412    6.7407 C.ar    1  UNL1        0.2218
      2 C           9.8315   41.1622    8.0328 C.ar    1  UNL1        0.1031
      3 C          10.4165   40.0342    8.6037 C.ar    1  UNL1        0.0355
      4 C          11.7109   39.6814    8.2065 C.ar    1  UNL1        0.0644
      5 N          10.5189   41.8925    7.1167 N.ar    1  UNL1       -0.2120
      6 N          12.3611   40.4395    7.2845 N.ar    1  UNL1       -0.2179
      7 C          12.3923   38.4802    8.7793 C.3     1  UNL1        0.0564
      8 C          11.4715   37.7347    9.7497 C.3     1  UNL1        0.0087
      9 C          12.2094   36.5835   10.4371 C.3     1  UNL1        0.0178
     10 C          13.6515   36.9514   10.8170 C.3     1  UNL1        0.0725
     11 C          13.7422   38.8627    9.4155 C.3     1  UNL1        0.0784
     12 N          13.8498   38.4001   10.8009 N.3     1  UNL1       -0.2647
     13 C          15.2196   38.6477   11.2190 C.3     1  UNL1        0.1582
     14 C          16.1105   38.7211   10.0266 C.2     1  UNL1        0.2357
     15 N          16.6714   37.5340    9.4777 N.am    1  UNL1       -0.3277
     16 O          16.3713   39.8361    9.5064 O.2     1  UNL1       -0.2738
     17 H          16.4684   36.6603    9.8836 H       1  UNL1        0.1450
     18 H          17.2624   37.5864    8.6921 H       1  UNL1        0.1450
     19 N          12.5039   42.3102    5.7742 N.pl3   1  UNL1       -0.2628
     20 H          12.1929   42.2694    4.8410 H       1  UNL1        0.1570
     21 C          13.6418   43.1332    6.0502 C.ar    1  UNL1        0.1657
     22 C          15.7598   44.1130    6.8303 C.ar    1  UNL1        0.0588
     23 C          15.0121   44.9066    5.9582 C.ar    1  UNL1        0.1079
     24 N          13.8418   44.3609    5.5290 N.ar    1  UNL1       -0.2224
     25 S          14.9009   42.6799    7.0530 S.2     1  UNL1       -0.0508
@<TRIPOS>BOND
     1     1    19    1
     2     1     6   ar
     3     2     5   ar
     4     3     4   ar
     5     7     4    1
     6     7     8    1
     7     8     9    1
     8     9    10    1
     9    10    12    1
    10    13    12    1
    11    13    14    1
    12    14    15   am
    13    11    12    1
    14    11     7    1
    15    21    25   ar
    16    22    25   ar
    17    23    24   ar
    18    19    21    1
    19     1     5   ar
    20     2     3   ar
    21     4     6   ar
    22    14    16    2
    23    21    24   ar
    24    22    23   ar
    25    15    17    1
    26    15    18    1
    27    19    20    1
@<TRIPOS>MOLECULE
Molport-053-137-771 MCULE-5500560604
 25 27 0 0 0
SMALL
GASTEIGER

@<TRIPOS>ATOM
      1 C          12.9266   41.6370    7.9174 C.ar    1  UNL1        0.2218
      2 C          13.4471   40.1371    9.6745 C.ar    1  UNL1        0.1031
      3 C          12.3255   40.5614   10.3834 C.ar    1  UNL1        0.0355
      4 C          11.5130   41.5493    9.8164 C.ar    1  UNL1        0.0644
      5 N          13.7268   40.6786    8.4605 N.ar    1  UNL1       -0.2120
      6 N          11.8320   42.0654    8.6001 N.ar    1  UNL1       -0.2179
      7 C          10.2973   42.0496   10.5285 C.3     1  UNL1        0.0564
      8 C           9.7547   40.9964   11.4990 C.3     1  UNL1        0.0087
      9 C           8.4373   41.4534   12.1298 C.3     1  UNL1        0.0178
     10 C           7.5221   42.1724   11.1274 C.3     1  UNL1        0.0725
     11 C           9.2340   42.5395    9.5272 C.3     1  UNL1        0.0784
     12 N           7.9329   41.9049    9.7497 N.3     1  UNL1       -0.2647
     13 C           6.9836   42.5824    8.8823 C.3     1  UNL1        0.1582
     14 C           5.6348   41.9644    9.0227 C.2     1  UNL1        0.2357
     15 N           5.2559   40.8752    8.1888 N.am    1  UNL1       -0.3277
     16 O           4.8270   42.4096    9.8776 O.2     1  UNL1       -0.2738
     17 H           5.8870   40.5253    7.5190 H       1  UNL1        0.1450
     18 H           4.3628   40.4716    8.2817 H       1  UNL1        0.1450
     19 N          13.2218   42.2087    6.6383 N.pl3   1  UNL1       -0.2628
     20 H          12.7324   41.8528    5.8618 H       1  UNL1        0.1570
     21 C          14.1683   43.2540    6.3932 C.ar    1  UNL1        0.1657
     22 C          16.1562   44.6899    6.1915 C.ar    1  UNL1        0.0588
     23 C          14.9682   45.2298    5.6952 C.ar    1  UNL1        0.1079
     24 N          13.8714   44.4324    5.8083 N.ar    1  UNL1       -0.2224
     25 S          15.7906   43.1557    6.7863 S.2     1  UNL1       -0.0508
@<TRIPOS>BOND
     1     1    19    1
     2     1     6   ar
     3     2     5   ar
     4     3     4   ar
     5     7     4    1
     6     7     8    1
     7     8     9    1
     8     9    10    1
     9    10    12    1
    10    13    12    1
    11    13    14    1
    12    14    15   am
    13    11    12    1
    14    11     7    1
    15    21    25   ar
    16    22    25   ar
    17    23    24   ar
    18    19    21    1
    19     1     5   ar
    20     2     3   ar
    21     4     6   ar
    22    14    16    2
    23    21    24   ar
    24    22    23   ar
    25    15    17    1
    26    15    18    1
    27    19    20    1
@<TRIPOS>MOLECULE
Molport-053-137-771 MCULE-5500560604
 25 27 0 0 0
SMALL
GASTEIGER

@<TRIPOS>ATOM
      1 C          14.4554   40.5487    9.3129 C.ar    1  UNL1        0.2218
      2 C          13.0572   39.7358   11.0426 C.ar    1  UNL1        0.1031
      3 C          11.9278   40.1398   10.3343 C.ar    1  UNL1        0.0355
      4 C          12.1062   40.7616    9.0936 C.ar    1  UNL1        0.0644
      5 N          14.2945   39.9455   10.5229 N.ar    1  UNL1       -0.2120
      6 N          13.3629   40.9538    8.6128 N.ar    1  UNL1       -0.2179
      7 C          10.9348   41.2213    8.2864 C.3     1  UNL1        0.0564
      8 C           9.6533   40.5003    8.7149 C.3     1  UNL1        0.0087
      9 C           8.4805   40.8703    7.8039 C.3     1  UNL1        0.0178
     10 C           8.8912   40.9739    6.3274 C.3     1  UNL1        0.0725
     11 C          11.2171   41.0863    6.7780 C.3     1  UNL1        0.0784
     12 N          10.1769   40.3196    6.0886 N.3     1  UNL1       -0.2647
     13 C          10.4524   40.4271    4.6655 C.3     1  UNL1        0.1582
     14 C           9.8523   39.2707    3.9421 C.2     1  UNL1        0.2357
     15 N          10.2124   37.9400    4.2954 N.am    1  UNL1       -0.3277
     16 O           9.0284   39.4712    3.0133 O.2     1  UNL1       -0.2738
     17 H          10.8571   37.7810    5.0223 H       1  UNL1        0.1450
     18 H           9.8167   37.1784    3.8131 H       1  UNL1        0.1450
     19 N          15.7596   40.7708    8.7653 N.pl3   1  UNL1       -0.2628
     20 H          16.3528   39.9894    8.6827 H       1  UNL1        0.1570
     21 C          16.2739   42.0328    8.3278 C.ar    1  UNL1        0.1657
     22 C          16.7201   44.1911    7.2338 C.ar    1  UNL1        0.0588
     23 C          17.6138   43.8295    8.2436 C.ar    1  UNL1        0.1079
     24 N          17.3633   42.6355    8.8462 N.ar    1  UNL1       -0.2224
     25 S          15.5833   42.9524    7.1139 S.2     1  UNL1       -0.0508
@<TRIPOS>BOND
     1     1    19    1
     2     1     6   ar
     3     2     5   ar
     4     3     4   ar
     5     7     4    1
     6     7     8    1
     7     8     9    1
     8     9    10    1
     9    10    12    1
    10    13    12    1
    11    13    14    1
    12    14    15   am
    13    11    12    1
    14    11     7    1
    15    21    25   ar
    16    22    25   ar
    17    23    24   ar
    18    19    21    1
    19     1     5   ar
    20     2     3   ar
    21     4     6   ar
    22    14    16    2
    23    21    24   ar
    24    22    23   ar
    25    15    17    1
    26    15    18    1
    27    19    20    1
@<TRIPOS>MOLECULE
Molport-053-137-771 MCULE-5500560604
 25 27 0 0 0
SMALL
GASTEIGER

@<TRIPOS>ATOM
      1 C           9.9454   41.3561    5.7488 C.ar    1  UNL1        0.2218
      2 C           8.6765   39.3578    5.6835 C.ar    1  UNL1        0.1031
      3 C           7.5610   40.0375    6.1676 C.ar    1  UNL1        0.0355
      4 C           7.6800   41.4047    6.4402 C.ar    1  UNL1        0.0644
      5 N           9.8427   40.0247    5.4831 N.ar    1  UNL1       -0.2120
      6 N           8.8671   42.0315    6.2274 N.ar    1  UNL1       -0.2179
      7 C           6.5208   42.1896    6.9647 C.3     1  UNL1        0.0564
      8 C           6.9629   43.5790    7.4334 C.3     1  UNL1        0.0087
      9 C           5.8058   44.3339    8.0918 C.3     1  UNL1        0.0178
     10 C           4.9355   43.4257    8.9732 C.3     1  UNL1        0.0725
     11 C           5.7717   41.4038    8.0577 C.3     1  UNL1        0.0784
     12 N           5.6274   42.1777    9.2927 N.3     1  UNL1       -0.2647
     13 C           4.7496   41.4143   10.1641 C.3     1  UNL1        0.1582
     14 C           3.3270   41.6561    9.7920 C.2     1  UNL1        0.2357
     15 N           2.7408   40.9483    8.7054 N.am    1  UNL1       -0.3277
     16 O           2.6434   42.4915   10.4373 O.2     1  UNL1       -0.2738
     17 H           3.2744   40.2939    8.1992 H       1  UNL1        0.1450
     18 H           1.8017   41.1130    8.4600 H       1  UNL1        0.1450
     19 N          11.1749   42.0592    5.5387 N.pl3   1  UNL1       -0.2628
     20 H          11.2144   42.6798    4.7755 H       1  UNL1        0.1570
     21 C          12.3514   41.9359    6.3444 C.ar    1  UNL1        0.1657
     22 C          14.0765   41.3352    7.9929 C.ar    1  UNL1        0.0588
     23 C          14.4440   42.3079    7.0611 C.ar    1  UNL1        0.1079
     24 N          13.4872   42.6368    6.1512 N.ar    1  UNL1       -0.2224
     25 S          12.4906   40.8871    7.6393 S.2     1  UNL1       -0.0508
@<TRIPOS>BOND
     1     1    19    1
     2     1     6   ar
     3     2     5   ar
     4     3     4   ar
     5     7     4    1
     6     7     8    1
     7     8     9    1
     8     9    10    1
     9    10    12    1
    10    13    12    1
    11    13    14    1
    12    14    15   am
    13    11    12    1
    14    11     7    1
    15    21    25   ar
    16    22    25   ar
    17    23    24   ar
    18    19    21    1
    19     1     5   ar
    20     2     3   ar
    21     4     6   ar
    22    14    16    2
    23    21    24   ar
    24    22    23   ar
    25    15    17    1
    26    15    18    1
    27    19    20    1
