@<TRIPOS>MOLECULE
MolPort-015-143-826 169935888 LN04836198 MCULE-1027342254 PubChem-53217105 ZINC000169935888
 28 30 0 0 0
SMALL
GASTEIGER

@<TRIPOS>ATOM
      1 C           7.7855   40.9713    6.3863 C.ar    1  UNL1        0.0000
      2 C           8.9430   41.7432    6.2421 C.ar    1  UNL1        0.0000
      3 C          10.1210   41.1769    5.7432 C.ar    1  UNL1        0.0000
      4 C          10.1213   39.8241    5.3462 C.ar    1  UNL1        0.0000
      5 C           8.9631   39.0545    5.4910 C.ar    1  UNL1        0.0000
      6 C           7.8007   39.6236    6.0157 C.ar    1  UNL1        0.0000
      7 F          11.2093   39.2606    4.7659 F       1  UNL1        0.0000
      8 C           7.2328   41.7414   10.0190 C.3     1  UNL1        0.0000
      9 C           6.0831   42.1102    9.0786 C.3     1  UNL1        0.0000
     10 C           4.8303   42.1956    9.9457 C.3     1  UNL1        0.0000
     11 C           6.3507   43.4221    8.2302 C.3     1  UNL1        0.0000
     12 C           5.2958   44.5043    8.4420 C.3     1  UNL1        0.0000
     13 C           7.7031   44.0762    8.5208 C.3     1  UNL1        0.0000
     14 O           5.8971   41.0580    8.1695 O.3     1  UNL1        0.0000
     15 O           6.3146   43.0570    6.8759 O.3     1  UNL1        0.0000
     16 B           6.4777   41.6153    6.9594 B       1  UNL1        0.0000
     17 C          12.5161   41.8558    6.2836 C.2     1  UNL1        0.0000
     18 O          12.5878   41.1295    7.3128 O.2     1  UNL1        0.0000
     19 N          11.2723   42.0179    5.5955 N.am    1  UNL1        0.0000
     20 H          11.2010   42.7718    4.9664 H       1  UNL1        0.0000
     21 O          13.6366   42.5567    5.8325 O.3     1  UNL1        0.0000
     22 C          14.1283   43.7193    6.4902 C.3     1  UNL1        0.0000
     23 C          15.4777   43.4586    7.0695 C.ar    1  UNL1        0.0000
     24 C          16.5439   44.3169    6.7788 C.ar    1  UNL1        0.0000
     25 C          17.8127   44.0610    7.3081 C.ar    1  UNL1        0.0000
     26 C          18.0172   42.9453    8.1259 C.ar    1  UNL1        0.0000
     27 C          16.9533   42.0848    8.4138 C.ar    1  UNL1        0.0000
     28 C          15.6845   42.3403    7.8847 C.ar    1  UNL1        0.0000
@<TRIPOS>BOND
     1     8     9    1
     2     9    10    1
     3     9    14    1
     4    11    15    1
     5    11    12    1
     6    11    13    1
     7    11     9    1
     8     2     3   ar
     9     3    19    1
    10    17    21    1
    11    22    21    1
    12    22    23    1
    13    24    25   ar
    14    26    27   ar
    15    28    23   ar
    16     4     7    1
    17     4     5   ar
    18     6     1   ar
    19    16    14    1
    20    16    15    1
    21    16     1    1
    22    19    17   am
    23     1     2   ar
    24     3     4   ar
    25    17    18    2
    26    23    24   ar
    27    25    26   ar
    28    27    28   ar
    29     5     6   ar
    30    19    20    1
@<TRIPOS>MOLECULE
MolPort-015-143-826 169935888 LN04836198 MCULE-1027342254 PubChem-53217105 ZINC000169935888
 28 30 0 0 0
SMALL
GASTEIGER

@<TRIPOS>ATOM
      1 C          14.4719   35.2178    9.0768 C.ar    1  UNL1        0.0000
      2 C          14.7312   36.5660    8.8090 C.ar    1  UNL1        0.0000
      3 C          13.8428   37.5611    9.2307 C.ar    1  UNL1        0.0000
      4 C          12.6977   37.1958    9.9677 C.ar    1  UNL1        0.0000
      5 C          12.4408   35.8477   10.2344 C.ar    1  UNL1        0.0000
      6 C          13.3207   34.8609    9.7847 C.ar    1  UNL1        0.0000
      7 F          11.8625   38.1320   10.4813 F       1  UNL1        0.0000
      8 C          16.4268   35.4140    5.8776 C.3     1  UNL1        0.0000
      9 C          16.6633   34.1623    6.7257 C.3     1  UNL1        0.0000
     10 C          17.2212   33.1025    5.7801 C.3     1  UNL1        0.0000
     11 C          17.5787   34.4169    7.9944 C.3     1  UNL1        0.0000
     12 C          18.8298   33.5433    8.0221 C.3     1  UNL1        0.0000
     13 C          18.0606   35.8634    8.1237 C.3     1  UNL1        0.0000
     14 O          15.4237   33.7011    7.1934 O.3     1  UNL1        0.0000
     15 O          16.8167   34.0985    9.1287 O.3     1  UNL1        0.0000
     16 B          15.4684   34.1134    8.5863 B       1  UNL1        0.0000
     17 C          13.3396   39.8508    8.2339 C.2     1  UNL1        0.0000
     18 O          12.3820   39.4345    7.5256 O.2     1  UNL1        0.0000
     19 N          14.1673   38.9285    8.9489 N.am    1  UNL1        0.0000
     20 H          15.0343   39.2617    9.2754 H       1  UNL1        0.0000
     21 O          13.6406   41.2135    8.2869 O.3     1  UNL1        0.0000
     22 C          13.9935   41.9650    7.1307 C.3     1  UNL1        0.0000
     23 C          15.3260   42.6090    7.3148 C.ar    1  UNL1        0.0000
     24 C          15.6720   43.7343    6.5585 C.ar    1  UNL1        0.0000
     25 C          16.9286   44.3263    6.7192 C.ar    1  UNL1        0.0000
     26 C          17.8414   43.7919    7.6339 C.ar    1  UNL1        0.0000
     27 C          17.4981   42.6651    8.3874 C.ar    1  UNL1        0.0000
     28 C          16.2417   42.0730    8.2269 C.ar    1  UNL1        0.0000
@<TRIPOS>BOND
     1     8     9    1
     2     9    10    1
     3     9    14    1
     4    11    15    1
     5    11    12    1
     6    11    13    1
     7    11     9    1
     8     2     3   ar
     9     3    19    1
    10    17    21    1
    11    22    21    1
    12    22    23    1
    13    24    25   ar
    14    26    27   ar
    15    28    23   ar
    16     4     7    1
    17     4     5   ar
    18     6     1   ar
    19    16    14    1
    20    16    15    1
    21    16     1    1
    22    19    17   am
    23     1     2   ar
    24     3     4   ar
    25    17    18    2
    26    23    24   ar
    27    25    26   ar
    28    27    28   ar
    29     5     6   ar
    30    19    20    1
@<TRIPOS>MOLECULE
MolPort-015-143-826 169935888 LN04836198 MCULE-1027342254 PubChem-53217105 ZINC000169935888
 28 30 0 0 0
SMALL
GASTEIGER

@<TRIPOS>ATOM
      1 C          13.4978   37.7638   10.5859 C.ar    1  UNL1        0.0000
      2 C          13.2487   38.7557    9.6318 C.ar    1  UNL1        0.0000
      3 C          12.0611   38.7526    8.8923 C.ar    1  UNL1        0.0000
      4 C          11.0933   37.7593    9.1464 C.ar    1  UNL1        0.0000
      5 C          11.3444   36.7690   10.1008 C.ar    1  UNL1        0.0000
      6 C          12.5453   36.7664   10.8136 C.ar    1  UNL1        0.0000
      7 F           9.8882   37.7749    8.5257 F       1  UNL1        0.0000
      8 C          16.8751   37.1142    9.0801 C.3     1  UNL1        0.0000
      9 C          16.8625   37.4127   10.5810 C.3     1  UNL1        0.0000
     10 C          18.1601   36.8394   11.1433 C.3     1  UNL1        0.0000
     11 C          16.6528   38.9461   10.9231 C.3     1  UNL1        0.0000
     12 C          17.7855   39.5399   11.7558 C.3     1  UNL1        0.0000
     13 C          16.5137   39.8376    9.6873 C.3     1  UNL1        0.0000
     14 O          15.8002   36.7073   11.1660 O.3     1  UNL1        0.0000
     15 O          15.4754   39.0471   11.6796 O.3     1  UNL1        0.0000
     16 B          14.8381   37.7720   11.3965 B       1  UNL1        0.0000
     17 C          11.5106   41.1583    8.2607 C.2     1  UNL1        0.0000
     18 O          11.0738   41.4567    9.4061 O.2     1  UNL1        0.0000
     19 N          11.8467   39.8045    7.9425 N.am    1  UNL1        0.0000
     20 H          11.9385   39.5758    6.9894 H       1  UNL1        0.0000
     21 O          11.6205   42.1350    7.2685 O.3     1  UNL1        0.0000
     22 C          12.5049   42.0048    6.1608 C.3     1  UNL1        0.0000
     23 C          13.7773   42.7379    6.4211 C.ar    1  UNL1        0.0000
     24 C          14.0299   43.9551    5.7788 C.ar    1  UNL1        0.0000
     25 C          15.2312   44.6325    6.0101 C.ar    1  UNL1        0.0000
     26 C          16.1821   44.0919    6.8813 C.ar    1  UNL1        0.0000
     27 C          15.9324   42.8737    7.5207 C.ar    1  UNL1        0.0000
     28 C          14.7312   42.1962    7.2897 C.ar    1  UNL1        0.0000
@<TRIPOS>BOND
     1     8     9    1
     2     9    10    1
     3     9    14    1
     4    11    15    1
     5    11    12    1
     6    11    13    1
     7    11     9    1
     8     2     3   ar
     9     3    19    1
    10    17    21    1
    11    22    21    1
    12    22    23    1
    13    24    25   ar
    14    26    27   ar
    15    28    23   ar
    16     4     7    1
    17     4     5   ar
    18     6     1   ar
    19    16    14    1
    20    16    15    1
    21    16     1    1
    22    19    17   am
    23     1     2   ar
    24     3     4   ar
    25    17    18    2
    26    23    24   ar
    27    25    26   ar
    28    27    28   ar
    29     5     6   ar
    30    19    20    1
@<TRIPOS>MOLECULE
MolPort-015-143-826 169935888 LN04836198 MCULE-1027342254 PubChem-53217105 ZINC000169935888
 28 30 0 0 0
SMALL
GASTEIGER

@<TRIPOS>ATOM
      1 C          14.6070   36.3769    9.1387 C.ar    1  UNL1        0.0000
      2 C          14.1446   37.5910    8.6205 C.ar    1  UNL1        0.0000
      3 C          12.8244   38.0017    8.8342 C.ar    1  UNL1        0.0000
      4 C          11.9699   37.1969    9.6152 C.ar    1  UNL1        0.0000
      5 C          12.4343   35.9838   10.1323 C.ar    1  UNL1        0.0000
      6 C          13.7462   35.5711    9.8895 C.ar    1  UNL1        0.0000
      7 F          10.7151   37.6017    9.9311 F       1  UNL1        0.0000
      8 C          15.5642   33.0611    7.6605 C.3     1  UNL1        0.0000
      9 C          16.7258   33.9970    8.0025 C.3     1  UNL1        0.0000
     10 C          17.9620   33.1132    8.1416 C.3     1  UNL1        0.0000
     11 C          16.9141   35.1823    6.9671 C.3     1  UNL1        0.0000
     12 C          18.2979   35.2092    6.3243 C.3     1  UNL1        0.0000
     13 C          15.9053   35.1590    5.8168 C.3     1  UNL1        0.0000
     14 O          16.4766   34.5757    9.2560 O.3     1  UNL1        0.0000
     15 O          16.7543   36.3832    7.6750 O.3     1  UNL1        0.0000
     16 B          16.0836   35.9232    8.8795 B       1  UNL1        0.0000
     17 C          12.6094   40.5386    8.9188 C.2     1  UNL1        0.0000
     18 O          12.9025   40.6152   10.1436 O.2     1  UNL1        0.0000
     19 N          12.4083   39.2647    8.2993 N.am    1  UNL1        0.0000
     20 H          11.9443   39.2548    7.4311 H       1  UNL1        0.0000
     21 O          12.4225   41.6973    8.1619 O.3     1  UNL1        0.0000
     22 C          12.8306   41.7975    6.8019 C.3     1  UNL1        0.0000
     23 C          14.0170   42.6926    6.6787 C.ar    1  UNL1        0.0000
     24 C          15.1817   42.4179    7.4039 C.ar    1  UNL1        0.0000
     25 C          16.2872   43.2681    7.3012 C.ar    1  UNL1        0.0000
     26 C          16.2279   44.3954    6.4758 C.ar    1  UNL1        0.0000
     27 C          15.0631   44.6730    5.7537 C.ar    1  UNL1        0.0000
     28 C          13.9577   43.8230    5.8562 C.ar    1  UNL1        0.0000
@<TRIPOS>BOND
     1     8     9    1
     2     9    10    1
     3     9    14    1
     4    11    15    1
     5    11    12    1
     6    11    13    1
     7    11     9    1
     8     2     3   ar
     9     3    19    1
    10    17    21    1
    11    22    21    1
    12    22    23    1
    13    24    25   ar
    14    26    27   ar
    15    28    23   ar
    16     4     7    1
    17     4     5   ar
    18     6     1   ar
    19    16    14    1
    20    16    15    1
    21    16     1    1
    22    19    17   am
    23     1     2   ar
    24     3     4   ar
    25    17    18    2
    26    23    24   ar
    27    25    26   ar
    28    27    28   ar
    29     5     6   ar
    30    19    20    1
@<TRIPOS>MOLECULE
MolPort-015-143-826 169935888 LN04836198 MCULE-1027342254 PubChem-53217105 ZINC000169935888
 28 30 0 0 0
SMALL
GASTEIGER

@<TRIPOS>ATOM
      1 C          14.5859   41.2854    8.0102 C.ar    1  UNL1        0.0000
      2 C          13.3232   41.3577    7.4129 C.ar    1  UNL1        0.0000
      3 C          12.9937   42.4222    6.5669 C.ar    1  UNL1        0.0000
      4 C          13.9639   43.4061    6.2869 C.ar    1  UNL1        0.0000
      5 C          15.2254   43.3317    6.8849 C.ar    1  UNL1        0.0000
      6 C          15.5338   42.2790    7.7493 C.ar    1  UNL1        0.0000
      7 F          13.7227   44.3999    5.3968 F       1  UNL1        0.0000
      8 C          12.4388   40.1943   10.8902 C.3     1  UNL1        0.0000
      9 C          13.7193   39.3854   10.6715 C.3     1  UNL1        0.0000
     10 C          14.0294   38.7049   12.0018 C.3     1  UNL1        0.0000
     11 C          13.6333   38.3744    9.4537 C.3     1  UNL1        0.0000
     12 C          13.8884   36.9238    9.8533 C.3     1  UNL1        0.0000
     13 C          12.2824   38.3921    8.7352 C.3     1  UNL1        0.0000
     14 O          14.7676   40.2769   10.3983 O.3     1  UNL1        0.0000
     15 O          14.6300   38.7410    8.5367 O.3     1  UNL1        0.0000
     16 B          14.9360   40.0952    8.9663 B       1  UNL1        0.0000
     17 C          10.9042   41.2827    5.6584 C.2     1  UNL1        0.0000
     18 O          11.4332   40.1379    5.6191 O.2     1  UNL1        0.0000
     19 N          11.6934   42.4363    5.9639 N.am    1  UNL1        0.0000
     20 H          11.3105   43.3154    5.7406 H       1  UNL1        0.0000
     21 O           9.5522   41.4487    5.3503 O.3     1  UNL1        0.0000
     22 C           8.5108   41.0446    6.2324 C.3     1  UNL1        0.0000
     23 C           7.9562   42.2235    6.9582 C.ar    1  UNL1        0.0000
     24 C           8.5027   42.6123    8.1863 C.ar    1  UNL1        0.0000
     25 C           7.9700   43.7070    8.8743 C.ar    1  UNL1        0.0000
     26 C           6.8886   44.4118    8.3365 C.ar    1  UNL1        0.0000
     27 C           6.3392   44.0218    7.1113 C.ar    1  UNL1        0.0000
     28 C           6.8717   42.9273    6.4231 C.ar    1  UNL1        0.0000
@<TRIPOS>BOND
     1     8     9    1
     2     9    10    1
     3     9    14    1
     4    11    15    1
     5    11    12    1
     6    11    13    1
     7    11     9    1
     8     2     3   ar
     9     3    19    1
    10    17    21    1
    11    22    21    1
    12    22    23    1
    13    24    25   ar
    14    26    27   ar
    15    28    23   ar
    16     4     7    1
    17     4     5   ar
    18     6     1   ar
    19    16    14    1
    20    16    15    1
    21    16     1    1
    22    19    17   am
    23     1     2   ar
    24     3     4   ar
    25    17    18    2
    26    23    24   ar
    27    25    26   ar
    28    27    28   ar
    29     5     6   ar
    30    19    20    1
@<TRIPOS>MOLECULE
MolPort-015-143-826 169935888 LN04836198 MCULE-1027342254 PubChem-53217105 ZINC000169935888
 28 30 0 0 0
SMALL
GASTEIGER

@<TRIPOS>ATOM
      1 C          10.0609   41.8948    8.2382 C.ar    1  UNL1        0.0000
      2 C           8.8195   42.2835    8.7523 C.ar    1  UNL1        0.0000
      3 C           7.7004   42.3809    7.9185 C.ar    1  UNL1        0.0000
      4 C           7.8248   42.0429    6.5553 C.ar    1  UNL1        0.0000
      5 C           9.0665   41.6544    6.0437 C.ar    1  UNL1        0.0000
      6 C          10.1828   41.5871    6.8801 C.ar    1  UNL1        0.0000
      7 F           6.7474   42.0268    5.7325 F       1  UNL1        0.0000
      8 C          11.2059   38.7390    9.9190 C.3     1  UNL1        0.0000
      9 C          12.0520   39.9840   10.1947 C.3     1  UNL1        0.0000
     10 C          12.8072   39.7108   11.4923 C.3     1  UNL1        0.0000
     11 C          12.9991   40.3893    8.9900 C.3     1  UNL1        0.0000
     12 C          14.4760   40.4358    9.3715 C.3     1  UNL1        0.0000
     13 C          12.8949   39.4523    7.7848 C.3     1  UNL1        0.0000
     14 O          11.1895   41.0657   10.4273 O.3     1  UNL1        0.0000
     15 O          12.6275   41.6799    8.5838 O.3     1  UNL1        0.0000
     16 B          11.3084   41.8037    9.1810 B       1  UNL1        0.0000
     17 C           6.0339   44.1032    8.7822 C.2     1  UNL1        0.0000
     18 O           6.8792   45.0392    8.8186 O.2     1  UNL1        0.0000
     19 N           6.4476   42.7628    8.5008 N.am    1  UNL1        0.0000
     20 H           5.8176   42.0407    8.7265 H       1  UNL1        0.0000
     21 O           4.6901   44.3515    9.0704 O.3     1  UNL1        0.0000
     22 C           3.6594   43.4131    8.7819 C.3     1  UNL1        0.0000
     23 C           3.5911   42.3708    9.8462 C.ar    1  UNL1        0.0000
     24 C           3.9062   41.0406    9.5471 C.ar    1  UNL1        0.0000
     25 C           3.8243   40.0611   10.5417 C.ar    1  UNL1        0.0000
     26 C           3.4245   40.4102   11.8355 C.ar    1  UNL1        0.0000
     27 C           3.1058   41.7384   12.1346 C.ar    1  UNL1        0.0000
     28 C           3.1875   42.7180   11.1402 C.ar    1  UNL1        0.0000
@<TRIPOS>BOND
     1     8     9    1
     2     9    10    1
     3     9    14    1
     4    11    15    1
     5    11    12    1
     6    11    13    1
     7    11     9    1
     8     2     3   ar
     9     3    19    1
    10    17    21    1
    11    22    21    1
    12    22    23    1
    13    24    25   ar
    14    26    27   ar
    15    28    23   ar
    16     4     7    1
    17     4     5   ar
    18     6     1   ar
    19    16    14    1
    20    16    15    1
    21    16     1    1
    22    19    17   am
    23     1     2   ar
    24     3     4   ar
    25    17    18    2
    26    23    24   ar
    27    25    26   ar
    28    27    28   ar
    29     5     6   ar
    30    19    20    1
@<TRIPOS>MOLECULE
MolPort-015-143-826 169935888 LN04836198 MCULE-1027342254 PubChem-53217105 ZINC000169935888
 28 30 0 0 0
SMALL
GASTEIGER

@<TRIPOS>ATOM
      1 C           7.0013   42.1235    8.8966 C.ar    1  UNL1        0.0000
      2 C           5.7376   41.9966    9.4826 C.ar    1  UNL1        0.0000
      3 C           4.7386   42.9448    9.2373 C.ar    1  UNL1        0.0000
      4 C           5.0040   44.0139    8.3573 C.ar    1  UNL1        0.0000
      5 C           6.2677   44.1386    7.7725 C.ar    1  UNL1        0.0000
      6 C           7.2658   43.2009    8.0463 C.ar    1  UNL1        0.0000
      7 F           4.0368   44.8994    8.0130 F       1  UNL1        0.0000
      8 C          10.1944   41.8207    6.9453 C.3     1  UNL1        0.0000
      9 C          10.0233   40.8295    8.0986 C.3     1  UNL1        0.0000
     10 C          10.9520   39.6566    7.7976 C.3     1  UNL1        0.0000
     11 C          10.2629   41.4696    9.5288 C.3     1  UNL1        0.0000
     12 C          11.3672   40.7779   10.3232 C.3     1  UNL1        0.0000
     13 C          10.6302   42.9543    9.4834 C.3     1  UNL1        0.0000
     14 O           8.7075   40.3434    8.0760 O.3     1  UNL1        0.0000
     15 O           9.0699   41.3281   10.2537 O.3     1  UNL1        0.0000
     16 B           8.1145   41.0618    9.1915 B       1  UNL1        0.0000
     17 C           3.2258   42.3443   11.1970 C.2     1  UNL1        0.0000
     18 O           4.1530   41.8171   11.8710 O.2     1  UNL1        0.0000
     19 N           3.4548   42.7555    9.8459 N.am    1  UNL1        0.0000
     20 H           2.6624   42.9227    9.2860 H       1  UNL1        0.0000
     21 O           1.9470   42.4842   11.7406 O.3     1  UNL1        0.0000
     22 C           1.6156   42.0237   13.0460 C.3     1  UNL1        0.0000
     23 C           0.4025   42.7269   13.5540 C.ar    1  UNL1        0.0000
     24 C          -0.8374   42.0783   13.5510 C.ar    1  UNL1        0.0000
     25 C          -1.9773   42.7452   14.0109 C.ar    1  UNL1        0.0000
     26 C          -1.8790   44.0620   14.4711 C.ar    1  UNL1        0.0000
     27 C          -0.6412   44.7124   14.4708 C.ar    1  UNL1        0.0000
     28 C           0.4987   44.0458   14.0111 C.ar    1  UNL1        0.0000
@<TRIPOS>BOND
     1     8     9    1
     2     9    10    1
     3     9    14    1
     4    11    15    1
     5    11    12    1
     6    11    13    1
     7    11     9    1
     8     2     3   ar
     9     3    19    1
    10    17    21    1
    11    22    21    1
    12    22    23    1
    13    24    25   ar
    14    26    27   ar
    15    28    23   ar
    16     4     7    1
    17     4     5   ar
    18     6     1   ar
    19    16    14    1
    20    16    15    1
    21    16     1    1
    22    19    17   am
    23     1     2   ar
    24     3     4   ar
    25    17    18    2
    26    23    24   ar
    27    25    26   ar
    28    27    28   ar
    29     5     6   ar
    30    19    20    1
@<TRIPOS>MOLECULE
MolPort-015-143-826 169935888 LN04836198 MCULE-1027342254 PubChem-53217105 ZINC000169935888
 28 30 0 0 0
SMALL
GASTEIGER

@<TRIPOS>ATOM
      1 C          11.6309   38.1210    8.8323 C.ar    1  UNL1        0.0000
      2 C          12.9900   38.0283    8.5151 C.ar    1  UNL1        0.0000
      3 C          13.8299   37.1596    9.2203 C.ar    1  UNL1        0.0000
      4 C          13.2844   36.3433   10.2322 C.ar    1  UNL1        0.0000
      5 C          11.9256   36.4375   10.5473 C.ar    1  UNL1        0.0000
      6 C          11.1023   37.3281    9.8549 C.ar    1  UNL1        0.0000
      7 F          14.0389   35.4170   10.8730 F       1  UNL1        0.0000
      8 C          11.3499   41.7911    9.5715 C.3     1  UNL1        0.0000
      9 C          10.4956   41.2795    8.4094 C.3     1  UNL1        0.0000
     10 C           9.3730   42.2961    8.2221 C.3     1  UNL1        0.0000
     11 C          11.3219   41.0048    7.0848 C.3     1  UNL1        0.0000
     12 C          10.8225   41.8038    5.8844 C.3     1  UNL1        0.0000
     13 C          12.8147   41.3137    7.2171 C.3     1  UNL1        0.0000
     14 O           9.9066   40.0648    8.7912 O.3     1  UNL1        0.0000
     15 O          11.1745   39.6439    6.7766 O.3     1  UNL1        0.0000
     16 B          10.7054   39.1083    8.0435 B       1  UNL1        0.0000
     17 C          15.8202   36.0145    8.1172 C.2     1  UNL1        0.0000
     18 O          15.2438   34.8959    8.0254 O.2     1  UNL1        0.0000
     19 N          15.2101   37.0877    8.8403 N.am    1  UNL1        0.0000
     20 H          15.7879   37.8416    9.0991 H       1  UNL1        0.0000
     21 O          17.0873   36.2054    7.5619 O.3     1  UNL1        0.0000
     22 C          17.6585   35.2962    6.6274 C.3     1  UNL1        0.0000
     23 C          17.6088   35.8655    5.2498 C.ar    1  UNL1        0.0000
     24 C          18.6964   36.5906    4.7505 C.ar    1  UNL1        0.0000
     25 C          18.6412   37.1392    3.4654 C.ar    1  UNL1        0.0000
     26 C          17.4975   36.9657    2.6797 C.ar    1  UNL1        0.0000
     27 C          16.4086   36.2446    3.1791 C.ar    1  UNL1        0.0000
     28 C          16.4635   35.6960    4.4641 C.ar    1  UNL1        0.0000
@<TRIPOS>BOND
     1     8     9    1
     2     9    10    1
     3     9    14    1
     4    11    15    1
     5    11    12    1
     6    11    13    1
     7    11     9    1
     8     2     3   ar
     9     3    19    1
    10    17    21    1
    11    22    21    1
    12    22    23    1
    13    24    25   ar
    14    26    27   ar
    15    28    23   ar
    16     4     7    1
    17     4     5   ar
    18     6     1   ar
    19    16    14    1
    20    16    15    1
    21    16     1    1
    22    19    17   am
    23     1     2   ar
    24     3     4   ar
    25    17    18    2
    26    23    24   ar
    27    25    26   ar
    28    27    28   ar
    29     5     6   ar
    30    19    20    1
@<TRIPOS>MOLECULE
MolPort-015-143-826 169935888 LN04836198 MCULE-1027342254 PubChem-53217105 ZINC000169935888
 28 30 0 0 0
SMALL
GASTEIGER

@<TRIPOS>ATOM
      1 C           8.9688   42.3682   10.0598 C.ar    1  UNL1        0.0000
      2 C           9.9847   42.6641    9.1451 C.ar    1  UNL1        0.0000
      3 C          11.2418   42.0598    9.2544 C.ar    1  UNL1        0.0000
      4 C          11.4656   41.1138   10.2755 C.ar    1  UNL1        0.0000
      5 C          10.4486   40.8195   11.1886 C.ar    1  UNL1        0.0000
      6 C           9.2064   41.4493   11.0860 C.ar    1  UNL1        0.0000
      7 F          12.6337   40.4309   10.3593 F       1  UNL1        0.0000
      8 C           7.2151   42.9971    6.8003 C.3     1  UNL1        0.0000
      9 C           6.4699   43.4559    8.0557 C.3     1  UNL1        0.0000
     10 C           5.4709   44.5150    7.5986 C.3     1  UNL1        0.0000
     11 C           5.8011   42.2702    8.8678 C.3     1  UNL1        0.0000
     12 C           4.2931   42.4305    9.0394 C.3     1  UNL1        0.0000
     13 C           6.0187   40.8937    8.2360 C.3     1  UNL1        0.0000
     14 O           7.3867   44.0818    8.9136 O.3     1  UNL1        0.0000
     15 O           6.3735   42.2676   10.1488 O.3     1  UNL1        0.0000
     16 B           7.5707   43.0630    9.9335 B       1  UNL1        0.0000
     17 C          12.5064   41.6418    7.0828 C.2     1  UNL1        0.0000
     18 O          12.0786   40.4620    6.9527 O.2     1  UNL1        0.0000
     19 N          12.2403   42.3822    8.2778 N.am    1  UNL1        0.0000
     20 H          12.7903   43.1817    8.4437 H       1  UNL1        0.0000
     21 O          13.2928   42.2236    6.0861 O.3     1  UNL1        0.0000
     22 C          13.8787   43.5130    6.2284 C.3     1  UNL1        0.0000
     23 C          15.2796   43.3964    6.7266 C.ar    1  UNL1        0.0000
     24 C          16.2735   44.2481    6.2318 C.ar    1  UNL1        0.0000
     25 C          17.5902   44.1257    6.6866 C.ar    1  UNL1        0.0000
     26 C          17.9147   43.1498    7.6340 C.ar    1  UNL1        0.0000
     27 C          16.9231   42.2957    8.1263 C.ar    1  UNL1        0.0000
     28 C          15.6065   42.4178    7.6717 C.ar    1  UNL1        0.0000
@<TRIPOS>BOND
     1     8     9    1
     2     9    10    1
     3     9    14    1
     4    11    15    1
     5    11    12    1
     6    11    13    1
     7    11     9    1
     8     2     3   ar
     9     3    19    1
    10    17    21    1
    11    22    21    1
    12    22    23    1
    13    24    25   ar
    14    26    27   ar
    15    28    23   ar
    16     4     7    1
    17     4     5   ar
    18     6     1   ar
    19    16    14    1
    20    16    15    1
    21    16     1    1
    22    19    17   am
    23     1     2   ar
    24     3     4   ar
    25    17    18    2
    26    23    24   ar
    27    25    26   ar
    28    27    28   ar
    29     5     6   ar
    30    19    20    1
@<TRIPOS>MOLECULE
MolPort-015-143-826 169935888 LN04836198 MCULE-1027342254 PubChem-53217105 ZINC000169935888
 28 30 0 0 0
SMALL
GASTEIGER

@<TRIPOS>ATOM
      1 C          10.5327   40.8180    8.5084 C.ar    1  UNL1        0.0000
      2 C          11.7794   40.9986    9.1163 C.ar    1  UNL1        0.0000
      3 C          12.4655   39.9142    9.6736 C.ar    1  UNL1        0.0000
      4 C          11.9061   38.6234    9.5813 C.ar    1  UNL1        0.0000
      5 C          10.6599   38.4452    8.9730 C.ar    1  UNL1        0.0000
      6 C           9.9716   39.5393    8.4444 C.ar    1  UNL1        0.0000
      7 F          12.5797   37.5309   10.0181 F       1  UNL1        0.0000
      8 C           6.9445   40.7313    7.4071 C.3     1  UNL1        0.0000
      9 C           7.6582   42.0750    7.2429 C.3     1  UNL1        0.0000
     10 C           6.8737   42.8515    6.1892 C.3     1  UNL1        0.0000
     11 C           7.8403   42.8692    8.6025 C.3     1  UNL1        0.0000
     12 C           7.2039   44.2562    8.5821 C.3     1  UNL1        0.0000
     13 C           7.2582   42.1461    9.8188 C.3     1  UNL1        0.0000
     14 O           8.9405   41.8375    6.7254 O.3     1  UNL1        0.0000
     15 O           9.2183   43.0403    8.8038 O.3     1  UNL1        0.0000
     16 B           9.7696   42.0437    7.9011 B       1  UNL1        0.0000
     17 C          15.0045   39.7164    9.7338 C.2     1  UNL1        0.0000
     18 O          15.0478   38.8169    8.8500 O.2     1  UNL1        0.0000
     19 N          13.7494   40.1511   10.2653 N.am    1  UNL1        0.0000
     20 H          13.7692   40.6565   11.1100 H       1  UNL1        0.0000
     21 O          16.1833   40.2621   10.2466 O.3     1  UNL1        0.0000
     22 C          17.2748   40.6436    9.4164 C.3     1  UNL1        0.0000
     23 C          16.9291   41.8619    8.6287 C.ar    1  UNL1        0.0000
     24 C          17.7919   42.9636    8.6253 C.ar    1  UNL1        0.0000
     25 C          17.4578   44.1120    7.9008 C.ar    1  UNL1        0.0000
     26 C          16.2595   44.1612    7.1818 C.ar    1  UNL1        0.0000
     27 C          15.3947   43.0624    7.1877 C.ar    1  UNL1        0.0000
     28 C          15.7285   41.9139    7.9120 C.ar    1  UNL1        0.0000
@<TRIPOS>BOND
     1     8     9    1
     2     9    10    1
     3     9    14    1
     4    11    15    1
     5    11    12    1
     6    11    13    1
     7    11     9    1
     8     2     3   ar
     9     3    19    1
    10    17    21    1
    11    22    21    1
    12    22    23    1
    13    24    25   ar
    14    26    27   ar
    15    28    23   ar
    16     4     7    1
    17     4     5   ar
    18     6     1   ar
    19    16    14    1
    20    16    15    1
    21    16     1    1
    22    19    17   am
    23     1     2   ar
    24     3     4   ar
    25    17    18    2
    26    23    24   ar
    27    25    26   ar
    28    27    28   ar
    29     5     6   ar
    30    19    20    1
