@<TRIPOS>MOLECULE
MolPort-029-902-000 96162757 CSSS00159880895 MCULE-9601715621 PubChem-72915617 ZINC000096162757 ZINC96162757
 31 33 0 0 0
SMALL
GASTEIGER

@<TRIPOS>ATOM
      1 N          12.9049   40.9044    8.2894 N.am    1  UNL1       -0.2594
      2 N          10.7775   40.6379    9.5469 N.am    1  UNL1       -0.2680
      3 C          11.8420   41.4752    9.0717 C.2     1  UNL1        0.3079
      4 O          11.8509   42.7089    9.3340 O.2     1  UNL1       -0.2522
      5 H          10.8234   39.6860    9.2999 H       1  UNL1        0.1564
      6 C           9.6544   41.0390   10.3427 C.ar    1  UNL1        0.0546
      7 C           8.4863   41.4544    9.6947 C.ar    1  UNL1        0.0516
      8 C           7.3667   41.8594   10.4288 C.ar    1  UNL1        0.1396
      9 C           7.4195   41.8428   11.8315 C.ar    1  UNL1        0.0370
     10 C           8.5812   41.4281   12.4866 C.ar    1  UNL1        0.0044
     11 C           9.6949   41.0278   11.7446 C.ar    1  UNL1        0.0149
     12 O           6.2183   42.2673    9.7417 O.3     1  UNL1       -0.4791
     13 C           4.9325   42.3391   10.3485 C.3     1  UNL1        0.1659
     14 C           4.6324   41.0297   11.0557 C.3     1  UNL1        0.0435
     15 C           3.5779   40.3285   10.2288 C.3     1  UNL1        0.0038
     16 C           2.8350   41.4331    9.5177 C.3     1  UNL1        0.0038
     17 C           3.8650   42.5150    9.2790 C.3     1  UNL1        0.0435
     18 C          13.9237   41.7468    7.6763 C.3     1  UNL1        0.1048
     19 C          13.4009   42.3537    6.3850 C.3     1  UNL1        0.1063
     20 N          15.1759   44.0554    6.9379 N.am    1  UNL1       -0.3287
     21 C          14.0841   43.6484    6.1219 C.2     1  UNL1        0.2211
     22 O          13.6777   44.3979    5.1966 O.2     1  UNL1       -0.2753
     23 H          15.4945   43.4695    7.6621 H       1  UNL1        0.1449
     24 H          15.6130   44.9230    6.7784 H       1  UNL1        0.1449
     25 C          12.9937   39.4645    8.0729 C.3     1  UNL1        0.1217
     26 C          13.4105   38.7644    9.3241 C.ar    1  UNL1       -0.0023
     27 C          14.1630   39.4399   10.2926 C.ar    1  UNL1       -0.0026
     28 C          14.5478   38.7823   11.4649 C.ar    1  UNL1       -0.0003
     29 C          14.1832   37.4483   11.6697 C.ar    1  UNL1       -0.0000
     30 C          13.4338   36.7717   10.7024 C.ar    1  UNL1       -0.0003
     31 C          13.0480   37.4292    9.5304 C.ar    1  UNL1       -0.0026
@<TRIPOS>BOND
     1    20    21   am
     2     1     3   am
     3     2     6    1
     4    19    21    1
     5    19    18    1
     6    18     1    1
     7    25     1    1
     8    25    26    1
     9    27    28   ar
    10    29    30   ar
    11    31    26   ar
    12     3     2   am
    13     7     8   ar
    14     8    12    1
    15    13    12    1
    16    13    14    1
    17    14    15    1
    18    15    16    1
    19    16    17    1
    20    17    13    1
    21     9    10   ar
    22    11     6   ar
    23    21    22    2
    24    26    27   ar
    25    28    29   ar
    26    30    31   ar
    27     3     4    2
    28     6     7   ar
    29     8     9   ar
    30    10    11   ar
    31    20    23    1
    32    20    24    1
    33     2     5    1
@<TRIPOS>MOLECULE
MolPort-029-902-000 96162757 CSSS00159880895 MCULE-9601715621 PubChem-72915617 ZINC000096162757 ZINC96162757
 31 33 0 0 0
SMALL
GASTEIGER

@<TRIPOS>ATOM
      1 N          13.2884   41.1675    8.4157 N.am    1  UNL1       -0.2594
      2 N          11.0490   40.7640    9.4159 N.am    1  UNL1       -0.2680
      3 C          12.0537   41.6764    8.9487 C.2     1  UNL1        0.3079
      4 O          11.8604   42.9217    9.0008 O.2     1  UNL1       -0.2522
      5 H          11.2565   39.8047    9.3389 H       1  UNL1        0.1564
      6 C           9.7756   41.0997    9.9826 C.ar    1  UNL1        0.0546
      7 C           8.6461   41.0761    9.1576 C.ar    1  UNL1        0.0516
      8 C           7.3834   41.4008    9.6643 C.ar    1  UNL1        0.1396
      9 C           7.2529   41.7491   11.0179 C.ar    1  UNL1        0.0370
     10 C           8.3751   41.7737   11.8490 C.ar    1  UNL1        0.0044
     11 C           9.6321   41.4503   11.3331 C.ar    1  UNL1        0.0149
     12 O           6.2797   41.3646    8.8054 O.3     1  UNL1       -0.4791
     13 C           5.9555   42.4223    7.9095 C.3     1  UNL1        0.1659
     14 C           7.2079   43.2202    7.5937 C.3     1  UNL1        0.0435
     15 C           7.0643   44.5439    8.3111 C.3     1  UNL1        0.0038
     16 C           5.5767   44.7650    8.4373 C.3     1  UNL1        0.0038
     17 C           4.9795   43.3819    8.5736 C.3     1  UNL1        0.0435
     18 C          14.2685   42.0578    7.8071 C.3     1  UNL1        0.1048
     19 C          13.7809   42.5304    6.4476 C.3     1  UNL1        0.1063
     20 N          15.4497   44.3554    6.9344 N.am    1  UNL1       -0.3287
     21 C          14.4252   43.8255    6.1018 C.2     1  UNL1        0.2211
     22 O          14.0438   44.4677    5.0891 O.2     1  UNL1       -0.2753
     23 H          15.7486   43.8536    7.7269 H       1  UNL1        0.1449
     24 H          15.8598   45.2239    6.7182 H       1  UNL1        0.1449
     25 C          13.5975   39.7425    8.4554 C.3     1  UNL1        0.1217
     26 C          14.3778   39.4025    9.6821 C.ar    1  UNL1       -0.0023
     27 C          15.7756   39.4842    9.6736 C.ar    1  UNL1       -0.0026
     28 C          16.5026   39.1693   10.8257 C.ar    1  UNL1       -0.0003
     29 C          15.8339   38.7701   11.9867 C.ar    1  UNL1       -0.0000
     30 C          14.4383   38.6858   11.9960 C.ar    1  UNL1       -0.0003
     31 C          13.7108   39.0016   10.8445 C.ar    1  UNL1       -0.0026
@<TRIPOS>BOND
     1    20    21   am
     2     1     3   am
     3     2     6    1
     4    19    21    1
     5    19    18    1
     6    18     1    1
     7    25     1    1
     8    25    26    1
     9    27    28   ar
    10    29    30   ar
    11    31    26   ar
    12     3     2   am
    13     7     8   ar
    14     8    12    1
    15    13    12    1
    16    13    14    1
    17    14    15    1
    18    15    16    1
    19    16    17    1
    20    17    13    1
    21     9    10   ar
    22    11     6   ar
    23    21    22    2
    24    26    27   ar
    25    28    29   ar
    26    30    31   ar
    27     3     4    2
    28     6     7   ar
    29     8     9   ar
    30    10    11   ar
    31    20    23    1
    32    20    24    1
    33     2     5    1
@<TRIPOS>MOLECULE
MolPort-029-902-000 96162757 CSSS00159880895 MCULE-9601715621 PubChem-72915617 ZINC000096162757 ZINC96162757
 31 33 0 0 0
SMALL
GASTEIGER

@<TRIPOS>ATOM
      1 N          12.4236   41.7549    7.7387 N.am    1  UNL1       -0.2594
      2 N          12.1669   39.5317    8.8203 N.am    1  UNL1       -0.2680
      3 C          13.0100   40.5978    8.3590 C.2     1  UNL1        0.3079
      4 O          14.2620   40.5277    8.4956 O.2     1  UNL1       -0.2522
      5 H          11.1980   39.6514    8.6934 H       1  UNL1        0.1564
      6 C          12.5844   38.3112    9.4460 C.ar    1  UNL1        0.0546
      7 C          13.9375   38.1463    9.7603 C.ar    1  UNL1        0.0516
      8 C          14.3927   36.9709   10.3668 C.ar    1  UNL1        0.1396
      9 C          13.4765   35.9502   10.6655 C.ar    1  UNL1        0.0370
     10 C          12.1236   36.1071   10.3565 C.ar    1  UNL1        0.0044
     11 C          11.6791   37.2835    9.7486 C.ar    1  UNL1        0.0149
     12 O          15.7540   36.8464   10.6646 O.3     1  UNL1       -0.4791
     13 C          16.7779   37.4834    9.9080 C.3     1  UNL1        0.1659
     14 C          17.9628   36.5447    9.7684 C.3     1  UNL1        0.0435
     15 C          19.0559   37.1008   10.6535 C.3     1  UNL1        0.0038
     16 C          18.7826   38.5829   10.7342 C.3     1  UNL1        0.0038
     17 C          17.2781   38.7147   10.6484 C.3     1  UNL1        0.0435
     18 C          13.2359   42.9123    7.3863 C.3     1  UNL1        0.1048
     19 C          13.7111   42.8060    5.9468 C.3     1  UNL1        0.1063
     20 N          15.3500   44.5604    6.7138 N.am    1  UNL1       -0.3287
     21 C          14.6744   43.8997    5.6504 C.2     1  UNL1        0.2211
     22 O          14.8700   44.2612    4.4612 O.2     1  UNL1       -0.2753
     23 H          15.1975   44.2782    7.6445 H       1  UNL1        0.1449
     24 H          15.9700   45.2999    6.5189 H       1  UNL1        0.1449
     25 C          10.9947   41.8150    7.4514 C.3     1  UNL1        0.1217
     26 C          10.2192   42.1478    8.6831 C.ar    1  UNL1       -0.0023
     27 C          10.6835   43.1322    9.5639 C.ar    1  UNL1       -0.0026
     28 C           9.9523   43.4442   10.7141 C.ar    1  UNL1       -0.0003
     29 C           8.7577   42.7712   10.9868 C.ar    1  UNL1       -0.0000
     30 C           8.2940   41.7862   10.1094 C.ar    1  UNL1       -0.0003
     31 C           9.0243   41.4746    8.9586 C.ar    1  UNL1       -0.0026
@<TRIPOS>BOND
     1    20    21   am
     2     1     3   am
     3     2     6    1
     4    19    21    1
     5    19    18    1
     6    18     1    1
     7    25     1    1
     8    25    26    1
     9    27    28   ar
    10    29    30   ar
    11    31    26   ar
    12     3     2   am
    13     7     8   ar
    14     8    12    1
    15    13    12    1
    16    13    14    1
    17    14    15    1
    18    15    16    1
    19    16    17    1
    20    17    13    1
    21     9    10   ar
    22    11     6   ar
    23    21    22    2
    24    26    27   ar
    25    28    29   ar
    26    30    31   ar
    27     3     4    2
    28     6     7   ar
    29     8     9   ar
    30    10    11   ar
    31    20    23    1
    32    20    24    1
    33     2     5    1
@<TRIPOS>MOLECULE
MolPort-029-902-000 96162757 CSSS00159880895 MCULE-9601715621 PubChem-72915617 ZINC000096162757 ZINC96162757
 31 33 0 0 0
SMALL
GASTEIGER

@<TRIPOS>ATOM
      1 N          11.0843   41.3675    6.6575 N.am    1  UNL1       -0.2594
      2 N          13.2577   41.7885    7.7877 N.am    1  UNL1       -0.2680
      3 C          12.4748   41.7263    6.5862 C.2     1  UNL1        0.3079
      4 O          12.9978   41.9859    5.4682 O.2     1  UNL1       -0.2522
      5 H          12.7886   41.5845    8.6289 H       1  UNL1        0.1564
      6 C          14.6494   42.1160    7.8942 C.ar    1  UNL1        0.0546
      7 C          15.4995   41.2264    8.5597 C.ar    1  UNL1        0.0516
      8 C          16.8637   41.5052    8.6930 C.ar    1  UNL1        0.1396
      9 C          17.3813   42.6905    8.1471 C.ar    1  UNL1        0.0370
     10 C          16.5400   43.5834    7.4798 C.ar    1  UNL1        0.0044
     11 C          15.1786   43.2972    7.3540 C.ar    1  UNL1        0.0149
     12 O          17.6792   40.5889    9.3656 O.3     1  UNL1       -0.4791
     13 C          17.2120   39.7643   10.4279 C.3     1  UNL1        0.1659
     14 C          18.3668   38.9494   10.9820 C.3     1  UNL1        0.0435
     15 C          18.1394   37.5236   10.5319 C.3     1  UNL1        0.0038
     16 C          16.6465   37.4012   10.3479 C.3     1  UNL1        0.0038
     17 C          16.1878   38.7712    9.8996 C.3     1  UNL1        0.0435
     18 C          10.2300   41.4298    5.4786 C.3     1  UNL1        0.1048
     19 C          10.6962   40.4289    4.4345 C.3     1  UNL1        0.1063
     20 N           9.5761   38.2793    5.1249 N.am    1  UNL1       -0.3287
     21 C           9.6554   39.3856    4.2341 C.2     1  UNL1        0.2211
     22 O           8.8637   39.4653    3.2594 O.2     1  UNL1       -0.2753
     23 H          10.1953   38.2162    5.8877 H       1  UNL1        0.1449
     24 H           8.9022   37.5767    4.9785 H       1  UNL1        0.1449
     25 C          10.4782   40.9401    7.9137 C.3     1  UNL1        0.1217
     26 C           9.9035   42.1054    8.6493 C.ar    1  UNL1       -0.0023
     27 C           8.6513   42.6182    8.2893 C.ar    1  UNL1       -0.0026
     28 C           8.1145   43.7068    8.9833 C.ar    1  UNL1       -0.0003
     29 C           8.8293   44.2858   10.0361 C.ar    1  UNL1       -0.0000
     30 C          10.0809   43.7763   10.3951 C.ar    1  UNL1       -0.0003
     31 C          10.6177   42.6871    9.7021 C.ar    1  UNL1       -0.0026
@<TRIPOS>BOND
     1    20    21   am
     2     1     3   am
     3     2     6    1
     4    19    21    1
     5    19    18    1
     6    18     1    1
     7    25     1    1
     8    25    26    1
     9    27    28   ar
    10    29    30   ar
    11    31    26   ar
    12     3     2   am
    13     7     8   ar
    14     8    12    1
    15    13    12    1
    16    13    14    1
    17    14    15    1
    18    15    16    1
    19    16    17    1
    20    17    13    1
    21     9    10   ar
    22    11     6   ar
    23    21    22    2
    24    26    27   ar
    25    28    29   ar
    26    30    31   ar
    27     3     4    2
    28     6     7   ar
    29     8     9   ar
    30    10    11   ar
    31    20    23    1
    32    20    24    1
    33     2     5    1
@<TRIPOS>MOLECULE
MolPort-029-902-000 96162757 CSSS00159880895 MCULE-9601715621 PubChem-72915617 ZINC000096162757 ZINC96162757
 31 33 0 0 0
SMALL
GASTEIGER

@<TRIPOS>ATOM
      1 N          10.1999   39.9250    6.8546 N.am    1  UNL1       -0.2594
      2 N           8.4445   41.2252    8.0406 N.am    1  UNL1       -0.2680
      3 C           9.3756   41.0988    6.9555 C.2     1  UNL1        0.3079
      4 O           9.4747   42.0097    6.0887 O.2     1  UNL1       -0.2522
      5 H           8.4082   40.4757    8.6779 H       1  UNL1        0.1564
      6 C           7.5617   42.3256    8.2957 C.ar    1  UNL1        0.0546
      7 C           6.1898   42.0748    8.4046 C.ar    1  UNL1        0.0516
      8 C           5.2893   43.1170    8.6481 C.ar    1  UNL1        0.1396
      9 C           5.7735   44.4272    8.7886 C.ar    1  UNL1        0.0370
     10 C           7.1417   44.6864    8.6829 C.ar    1  UNL1        0.0044
     11 C           8.0328   43.6392    8.4371 C.ar    1  UNL1        0.0149
     12 O           3.9254   42.8230    8.7502 O.3     1  UNL1       -0.4791
     13 C           3.3341   42.2680    9.9202 C.3     1  UNL1        0.1659
     14 C           4.2970   42.4015   11.0862 C.3     1  UNL1        0.0435
     15 C           4.8150   41.0101   11.3750 C.3     1  UNL1        0.0038
     16 C           3.7281   40.0777   10.8988 C.3     1  UNL1        0.0038
     17 C           3.0904   40.7797    9.7203 C.3     1  UNL1        0.0435
     18 C          11.0527   39.7023    5.6942 C.3     1  UNL1        0.1048
     19 C          10.3631   40.1883    4.4303 C.3     1  UNL1        0.1063
     20 N          10.2892   37.7235    3.9091 N.am    1  UNL1       -0.3287
     21 C           9.7770   39.0338    3.6983 C.2     1  UNL1        0.2211
     22 O           8.8481   39.2195    2.8702 O.2     1  UNL1       -0.2753
     23 H          11.0160   37.5774    4.5569 H       1  UNL1        0.1449
     24 H           9.9168   36.9628    3.4072 H       1  UNL1        0.1449
     25 C          10.2025   38.9117    7.9040 C.3     1  UNL1        0.1217
     26 C          11.2857   39.1782    8.8964 C.ar    1  UNL1       -0.0023
     27 C          11.0505   40.0252    9.9862 C.ar    1  UNL1       -0.0026
     28 C          12.0660   40.2689   10.9159 C.ar    1  UNL1       -0.0003
     29 C          13.3184   39.6685   10.7563 C.ar    1  UNL1       -0.0000
     30 C          13.5555   38.8243    9.6673 C.ar    1  UNL1       -0.0003
     31 C          12.5400   38.5796    8.7379 C.ar    1  UNL1       -0.0026
@<TRIPOS>BOND
     1    20    21   am
     2     1     3   am
     3     2     6    1
     4    19    21    1
     5    19    18    1
     6    18     1    1
     7    25     1    1
     8    25    26    1
     9    27    28   ar
    10    29    30   ar
    11    31    26   ar
    12     3     2   am
    13     7     8   ar
    14     8    12    1
    15    13    12    1
    16    13    14    1
    17    14    15    1
    18    15    16    1
    19    16    17    1
    20    17    13    1
    21     9    10   ar
    22    11     6   ar
    23    21    22    2
    24    26    27   ar
    25    28    29   ar
    26    30    31   ar
    27     3     4    2
    28     6     7   ar
    29     8     9   ar
    30    10    11   ar
    31    20    23    1
    32    20    24    1
    33     2     5    1
@<TRIPOS>MOLECULE
MolPort-029-902-000 96162757 CSSS00159880895 MCULE-9601715621 PubChem-72915617 ZINC000096162757 ZINC96162757
 31 33 0 0 0
SMALL
GASTEIGER

@<TRIPOS>ATOM
      1 N          14.1016   40.4849    8.8947 N.am    1  UNL1       -0.2594
      2 N          11.8850   41.4706    9.4363 N.am    1  UNL1       -0.2680
      3 C          12.9295   40.5299    9.7265 C.2     1  UNL1        0.3079
      4 O          12.8274   39.7434   10.7072 O.2     1  UNL1       -0.2522
      5 H          12.0295   42.0632    8.6635 H       1  UNL1        0.1564
      6 C          10.6539   41.6400   10.1512 C.ar    1  UNL1        0.0546
      7 C           9.6287   42.3831    9.5564 C.ar    1  UNL1        0.0516
      8 C           8.4117   42.5795   10.2174 C.ar    1  UNL1        0.1396
      9 C           8.2204   42.0186   11.4900 C.ar    1  UNL1        0.0370
     10 C           9.2380   41.2741   12.0905 C.ar    1  UNL1        0.0044
     11 C          10.4507   41.0856   11.4234 C.ar    1  UNL1        0.0149
     12 O           7.4124   43.3288    9.5871 O.3     1  UNL1       -0.4791
     13 C           6.4961   42.7724    8.6504 C.3     1  UNL1        0.1659
     14 C           6.5786   41.2574    8.7001 C.3     1  UNL1        0.0435
     15 C           7.2676   40.8242    7.4253 C.3     1  UNL1        0.0038
     16 C           6.9694   41.9146    6.4254 C.3     1  UNL1        0.0038
     17 C           6.8837   43.1871    7.2389 C.3     1  UNL1        0.0435
     18 C          15.2380   39.6414    9.2416 C.3     1  UNL1        0.1048
     19 C          15.1914   39.2709   10.7146 C.3     1  UNL1        0.1063
     20 N          16.9873   37.6662    9.9719 N.am    1  UNL1       -0.3287
     21 C          16.0682   38.0967   10.9686 C.2     1  UNL1        0.2211
     22 O          15.9764   37.4655   12.0532 O.2     1  UNL1       -0.2753
     23 H          17.0597   38.1595    9.1230 H       1  UNL1        0.1449
     24 H          17.5511   36.8749   10.1310 H       1  UNL1        0.1449
     25 C          14.1983   41.2900    7.6821 C.3     1  UNL1        0.1217
     26 C          15.3690   42.2141    7.7505 C.ar    1  UNL1       -0.0023
     27 C          15.3684   43.4078    7.0187 C.ar    1  UNL1       -0.0026
     28 C          16.4648   44.2728    7.0887 C.ar    1  UNL1       -0.0003
     29 C          17.5638   43.9448    7.8880 C.ar    1  UNL1       -0.0000
     30 C          17.5668   42.7519    8.6175 C.ar    1  UNL1       -0.0003
     31 C          16.4703   41.8872    8.5486 C.ar    1  UNL1       -0.0026
@<TRIPOS>BOND
     1    20    21   am
     2     1     3   am
     3     2     6    1
     4    19    21    1
     5    19    18    1
     6    18     1    1
     7    25     1    1
     8    25    26    1
     9    27    28   ar
    10    29    30   ar
    11    31    26   ar
    12     3     2   am
    13     7     8   ar
    14     8    12    1
    15    13    12    1
    16    13    14    1
    17    14    15    1
    18    15    16    1
    19    16    17    1
    20    17    13    1
    21     9    10   ar
    22    11     6   ar
    23    21    22    2
    24    26    27   ar
    25    28    29   ar
    26    30    31   ar
    27     3     4    2
    28     6     7   ar
    29     8     9   ar
    30    10    11   ar
    31    20    23    1
    32    20    24    1
    33     2     5    1
@<TRIPOS>MOLECULE
MolPort-029-902-000 96162757 CSSS00159880895 MCULE-9601715621 PubChem-72915617 ZINC000096162757 ZINC96162757
 31 33 0 0 0
SMALL
GASTEIGER

@<TRIPOS>ATOM
      1 N          10.4460   40.5912    7.0591 N.am    1  UNL1       -0.2594
      2 N           8.7302   42.0679    8.0857 N.am    1  UNL1       -0.2680
      3 C           9.1779   41.2648    6.9835 C.2     1  UNL1        0.3079
      4 O           8.4658   41.1444    5.9494 O.2     1  UNL1       -0.2522
      5 H           9.3272   42.1134    8.8672 H       1  UNL1        0.1564
      6 C           7.5070   42.8107    8.1707 C.ar    1  UNL1        0.0546
      7 C           6.3190   42.1205    8.4338 C.ar    1  UNL1        0.0516
      8 C           5.1005   42.8017    8.5210 C.ar    1  UNL1        0.1396
      9 C           5.0755   44.1944    8.3461 C.ar    1  UNL1        0.0370
     10 C           6.2571   44.8915    8.0846 C.ar    1  UNL1        0.0044
     11 C           7.4686   44.2020    7.9970 C.ar    1  UNL1        0.0149
     12 O           3.9356   42.0737    8.7860 O.3     1  UNL1       -0.4791
     13 C           3.4523   41.8303   10.1028 C.3     1  UNL1        0.1659
     14 C           4.5099   42.2362   11.1134 C.3     1  UNL1        0.0435
     15 C           5.0653   40.9532   11.6905 C.3     1  UNL1        0.0038
     16 C           3.9515   39.9442   11.5532 C.3     1  UNL1        0.0038
     17 C           3.2081   40.3413   10.2971 C.3     1  UNL1        0.0435
     18 C          10.8662   39.6601    6.0198 C.3     1  UNL1        0.1048
     19 C          10.7295   40.3012    4.6489 C.3     1  UNL1        0.1063
     20 N          10.9699   38.1164    3.4156 N.am    1  UNL1       -0.3287
     21 C          10.2245   39.3008    3.6711 C.2     1  UNL1        0.2211
     22 O           9.1530   39.5154    3.0474 O.2     1  UNL1       -0.2753
     23 H          11.8084   37.9477    3.9032 H       1  UNL1        0.1449
     24 H          10.6473   37.4654    2.7512 H       1  UNL1        0.1449
     25 C          11.3500   40.8075    8.1833 C.3     1  UNL1        0.1217
     26 C          12.6070   41.4755    7.7327 C.ar    1  UNL1       -0.0023
     27 C          12.5621   42.4744    6.7526 C.ar    1  UNL1       -0.0026
     28 C          13.7408   43.1007    6.3363 C.ar    1  UNL1       -0.0003
     29 C          14.9659   42.7279    6.8972 C.ar    1  UNL1       -0.0000
     30 C          15.0126   41.7290    7.8743 C.ar    1  UNL1       -0.0003
     31 C          13.8341   41.1031    8.2916 C.ar    1  UNL1       -0.0026
@<TRIPOS>BOND
     1    20    21   am
     2     1     3   am
     3     2     6    1
     4    19    21    1
     5    19    18    1
     6    18     1    1
     7    25     1    1
     8    25    26    1
     9    27    28   ar
    10    29    30   ar
    11    31    26   ar
    12     3     2   am
    13     7     8   ar
    14     8    12    1
    15    13    12    1
    16    13    14    1
    17    14    15    1
    18    15    16    1
    19    16    17    1
    20    17    13    1
    21     9    10   ar
    22    11     6   ar
    23    21    22    2
    24    26    27   ar
    25    28    29   ar
    26    30    31   ar
    27     3     4    2
    28     6     7   ar
    29     8     9   ar
    30    10    11   ar
    31    20    23    1
    32    20    24    1
    33     2     5    1
@<TRIPOS>MOLECULE
MolPort-029-902-000 96162757 CSSS00159880895 MCULE-9601715621 PubChem-72915617 ZINC000096162757 ZINC96162757
 31 33 0 0 0
SMALL
GASTEIGER

@<TRIPOS>ATOM
      1 N          12.9935   42.3969    7.0406 N.am    1  UNL1       -0.2594
      2 N          13.2755   40.9274    9.0253 N.am    1  UNL1       -0.2680
      3 C          13.8455   41.6401    7.9175 C.2     1  UNL1        0.3079
      4 O          15.0890   41.6087    7.7086 O.2     1  UNL1       -0.2522
      5 H          12.3004   41.0000    9.1397 H       1  UNL1        0.1564
      6 C          13.9739   40.1211    9.9832 C.ar    1  UNL1        0.0546
      7 C          15.3405   39.8879    9.7957 C.ar    1  UNL1        0.0516
      8 C          16.0630   39.1036   10.7009 C.ar    1  UNL1        0.1396
      9 C          15.4055   38.5503   11.8110 C.ar    1  UNL1        0.0370
     10 C          14.0418   38.7793   12.0067 C.ar    1  UNL1        0.0044
     11 C          13.3284   39.5618   11.0957 C.ar    1  UNL1        0.0149
     12 O          17.4281   38.8953   10.4766 O.3     1  UNL1       -0.4791
     13 C          18.0443   37.6147   10.5609 C.3     1  UNL1        0.1659
     14 C          19.5095   37.7318   10.1811 C.3     1  UNL1        0.0435
     15 C          19.6525   37.0835    8.8221 C.3     1  UNL1        0.0038
     16 C          18.5361   36.0706    8.7486 C.3     1  UNL1        0.0038
     17 C          17.4052   36.6663    9.5576 C.3     1  UNL1        0.0435
     18 C          13.5525   43.2415    5.9929 C.3     1  UNL1        0.1048
     19 C          15.0710   43.2080    6.0409 C.3     1  UNL1        0.1063
     20 N          15.1355   45.7113    5.7554 N.am    1  UNL1       -0.3287
     21 C          15.5942   44.5451    6.4287 C.2     1  UNL1        0.2211
     22 O          16.4646   44.6427    7.3320 O.2     1  UNL1       -0.2753
     23 H          14.4544   45.6358    5.0486 H       1  UNL1        0.1449
     24 H          15.4991   46.5939    5.9964 H       1  UNL1        0.1449
     25 C          11.5417   42.3546    7.1765 C.3     1  UNL1        0.1217
     26 C          10.9750   41.1776    6.4535 C.ar    1  UNL1       -0.0023
     27 C          11.1993   41.0189    5.0805 C.ar    1  UNL1       -0.0026
     28 C          10.6707   39.9130    4.4077 C.ar    1  UNL1       -0.0003
     29 C           9.9154   38.9660    5.1054 C.ar    1  UNL1       -0.0000
     30 C           9.6885   39.1243    6.4760 C.ar    1  UNL1       -0.0003
     31 C          10.2178   40.2294    7.1494 C.ar    1  UNL1       -0.0026
@<TRIPOS>BOND
     1    20    21   am
     2     1     3   am
     3     2     6    1
     4    19    21    1
     5    19    18    1
     6    18     1    1
     7    25     1    1
     8    25    26    1
     9    27    28   ar
    10    29    30   ar
    11    31    26   ar
    12     3     2   am
    13     7     8   ar
    14     8    12    1
    15    13    12    1
    16    13    14    1
    17    14    15    1
    18    15    16    1
    19    16    17    1
    20    17    13    1
    21     9    10   ar
    22    11     6   ar
    23    21    22    2
    24    26    27   ar
    25    28    29   ar
    26    30    31   ar
    27     3     4    2
    28     6     7   ar
    29     8     9   ar
    30    10    11   ar
    31    20    23    1
    32    20    24    1
    33     2     5    1
@<TRIPOS>MOLECULE
MolPort-029-902-000 96162757 CSSS00159880895 MCULE-9601715621 PubChem-72915617 ZINC000096162757 ZINC96162757
 31 33 0 0 0
SMALL
GASTEIGER

@<TRIPOS>ATOM
      1 N          11.5237   41.0530    7.9409 N.am    1  UNL1       -0.2594
      2 N          12.3795   38.7525    8.3332 N.am    1  UNL1       -0.2680
      3 C          11.6463   39.8989    8.7898 C.2     1  UNL1        0.3079
      4 O          11.1072   39.9005    9.9301 O.2     1  UNL1       -0.2522
      5 H          12.7677   38.8102    7.4303 H       1  UNL1        0.1564
      6 C          12.6071   37.5325    9.0509 C.ar    1  UNL1        0.0546
      7 C          13.8604   36.9188    8.9517 C.ar    1  UNL1        0.0516
      8 C          14.1277   35.7250    9.6297 C.ar    1  UNL1        0.1396
      9 C          13.1250   35.1425   10.4209 C.ar    1  UNL1        0.0370
     10 C          11.8716   35.7492   10.5267 C.ar    1  UNL1        0.0044
     11 C          11.6134   36.9400    9.8438 C.ar    1  UNL1        0.0149
     12 O          15.3942   35.1442    9.5039 O.3     1  UNL1       -0.4791
     13 C          15.8065   34.4179    8.3510 C.3     1  UNL1        0.1659
     14 C          15.1819   33.0344    8.3739 C.3     1  UNL1        0.0435
     15 C          16.2999   32.0651    8.6871 C.3     1  UNL1        0.0038
     16 C          17.5561   32.7376    8.1896 C.3     1  UNL1        0.0038
     17 C          17.3146   34.2191    8.3768 C.3     1  UNL1        0.0435
     18 C          10.6730   42.1752    8.3154 C.3     1  UNL1        0.1048
     19 C          11.3297   42.9922    9.4157 C.3     1  UNL1        0.1063
     20 N          10.0143   42.3962   11.4812 N.am    1  UNL1       -0.3287
     21 C          10.3262   43.3346   10.4586 C.2     1  UNL1        0.2211
     22 O           9.7310   44.4425   10.4198 O.2     1  UNL1       -0.2753
     23 H          10.4795   41.5291   11.5122 H       1  UNL1        0.1449
     24 H           9.3331   42.6138   12.1579 H       1  UNL1        0.1449
     25 C          12.2369   41.1354    6.6710 C.3     1  UNL1        0.1217
     26 C          13.4794   41.9512    6.8121 C.ar    1  UNL1       -0.0023
     27 C          13.6689   43.0897    6.0194 C.ar    1  UNL1       -0.0026
     28 C          14.8318   43.8537    6.1574 C.ar    1  UNL1       -0.0003
     29 C          15.8076   43.4794    7.0859 C.ar    1  UNL1       -0.0000
     30 C          15.6209   42.3415    7.8765 C.ar    1  UNL1       -0.0003
     31 C          14.4578   41.5778    7.7395 C.ar    1  UNL1       -0.0026
@<TRIPOS>BOND
     1    20    21   am
     2     1     3   am
     3     2     6    1
     4    19    21    1
     5    19    18    1
     6    18     1    1
     7    25     1    1
     8    25    26    1
     9    27    28   ar
    10    29    30   ar
    11    31    26   ar
    12     3     2   am
    13     7     8   ar
    14     8    12    1
    15    13    12    1
    16    13    14    1
    17    14    15    1
    18    15    16    1
    19    16    17    1
    20    17    13    1
    21     9    10   ar
    22    11     6   ar
    23    21    22    2
    24    26    27   ar
    25    28    29   ar
    26    30    31   ar
    27     3     4    2
    28     6     7   ar
    29     8     9   ar
    30    10    11   ar
    31    20    23    1
    32    20    24    1
    33     2     5    1
@<TRIPOS>MOLECULE
MolPort-029-902-000 96162757 CSSS00159880895 MCULE-9601715621 PubChem-72915617 ZINC000096162757 ZINC96162757
 31 33 0 0 0
SMALL
GASTEIGER

@<TRIPOS>ATOM
      1 N          10.1327   41.5888    6.6171 N.am    1  UNL1       -0.2594
      2 N          12.6113   41.5815    6.8035 N.am    1  UNL1       -0.2680
      3 C          11.3195   41.6067    7.4287 C.2     1  UNL1        0.3079
      4 O          11.2179   41.6427    8.6854 O.2     1  UNL1       -0.2522
      5 H          12.6227   41.5437    5.8198 H       1  UNL1        0.1564
      6 C          13.8866   41.6055    7.4579 C.ar    1  UNL1        0.0546
      7 C          14.1211   40.7082    8.5052 C.ar    1  UNL1        0.0516
      8 C          15.3480   40.6977    9.1768 C.ar    1  UNL1        0.1396
      9 C          16.3538   41.5968    8.7886 C.ar    1  UNL1        0.0370
     10 C          16.1287   42.4950    7.7431 C.ar    1  UNL1        0.0044
     11 C          14.8993   42.4995    7.0802 C.ar    1  UNL1        0.0149
     12 O          15.5416   39.7840   10.2185 O.3     1  UNL1       -0.4791
     13 C          14.5634   38.8242   10.6039 C.3     1  UNL1        0.1659
     14 C          14.5617   37.6760    9.6108 C.3     1  UNL1        0.0435
     15 C          13.2900   37.8103    8.8033 C.3     1  UNL1        0.0038
     16 C          12.3220   38.5321    9.7087 C.3     1  UNL1        0.0038
     17 C          13.1775   39.4496   10.5541 C.3     1  UNL1        0.0435
     18 C           8.8110   41.4736    7.2198 C.3     1  UNL1        0.1048
     19 C           8.3754   40.0185    7.2645 C.3     1  UNL1        0.1063
     20 N           5.9691   40.7517    7.4214 N.am    1  UNL1       -0.3287
     21 C           6.9536   39.9032    6.8432 C.2     1  UNL1        0.2211
     22 O           6.6163   39.0351    5.9971 O.2     1  UNL1       -0.2753
     23 H           6.2323   41.4311    8.0835 H       1  UNL1        0.1449
     24 H           5.0246   40.6595    7.1596 H       1  UNL1        0.1449
     25 C          10.2111   41.6738    5.1629 C.3     1  UNL1        0.1217
     26 C          10.2528   40.3115    4.5531 C.ar    1  UNL1       -0.0023
     27 C          11.3778   39.4961    4.7260 C.ar    1  UNL1       -0.0026
     28 C          11.4115   38.2193    4.1571 C.ar    1  UNL1       -0.0003
     29 C          10.3221   37.7569    3.4129 C.ar    1  UNL1       -0.0000
     30 C           9.1990   38.5709    3.2375 C.ar    1  UNL1       -0.0003
     31 C           9.1645   39.8474    3.8070 C.ar    1  UNL1       -0.0026
@<TRIPOS>BOND
     1    20    21   am
     2     1     3   am
     3     2     6    1
     4    19    21    1
     5    19    18    1
     6    18     1    1
     7    25     1    1
     8    25    26    1
     9    27    28   ar
    10    29    30   ar
    11    31    26   ar
    12     3     2   am
    13     7     8   ar
    14     8    12    1
    15    13    12    1
    16    13    14    1
    17    14    15    1
    18    15    16    1
    19    16    17    1
    20    17    13    1
    21     9    10   ar
    22    11     6   ar
    23    21    22    2
    24    26    27   ar
    25    28    29   ar
    26    30    31   ar
    27     3     4    2
    28     6     7   ar
    29     8     9   ar
    30    10    11   ar
    31    20    23    1
    32    20    24    1
    33     2     5    1
