@<TRIPOS>MOLECULE
MolPort-010-852-089 41108806 ChemDiv-G952-0652 MCULE-7816905175 PubChem-52103581 ZINC000041108806
 28 33 0 0 0
SMALL
GASTEIGER

@<TRIPOS>ATOM
      1 C           7.8432   36.0141    6.0233 C.ar    1  UNL1        0.1879
      2 C           7.6926   33.7081    5.4925 C.ar    1  UNL1        0.2195
      3 C           5.7050   33.4915    4.8499 C.ar    1  UNL1        0.1639
      4 N           6.6001   35.6714    5.5805 N.ar    1  UNL1       -0.1400
      5 N           6.5888   34.3775    5.3068 N.ar    1  UNL1       -0.1881
      6 N           7.5733   32.4079    5.1748 N.ar    1  UNL1       -0.1202
      7 N           6.3049   32.2721    4.7661 N.ar    1  UNL1       -0.1310
      8 S           8.9379   34.6711    6.0619 S.2     1  UNL1       -0.0111
      9 C           4.2886   33.7926    4.4874 C.3     1  UNL1        0.0606
     10 C           3.3929   32.5681    4.7365 C.3     1  UNL1        0.0076
     11 C           3.1417   31.7830    3.4509 C.3     1  UNL1        0.0004
     12 C           2.4425   32.6489    2.3944 C.3     1  UNL1        0.0000
     13 C           2.8176   34.1359    2.4690 C.3     1  UNL1        0.0004
     14 C           4.2135   34.3318    3.0520 C.3     1  UNL1        0.0076
     15 O           9.7336   37.8319    4.7178 O.2     1  UNL1       -0.2747
     16 C           9.0659   38.2422    5.7062 C.2     1  UNL1        0.2266
     17 N           8.1645   37.3607    6.3914 N.am    1  UNL1       -0.2628
     18 H           7.7224   37.7173    7.1955 H       1  UNL1        0.1568
     19 C           9.2771   39.6377    6.2299 C.3     1  UNL1        0.0692
     20 C           7.9631   40.2277    6.7876 C.3     1  UNL1        0.0086
     21 C           8.1946   41.6587    7.2981 C.3     1  UNL1        0.0005
     22 C           9.2507   41.6322    8.4140 C.3     1  UNL1        0.0000
     23 C          10.5699   41.0578    7.8741 C.3     1  UNL1        0.0005
     24 C          11.0678   41.9349    6.7143 C.3     1  UNL1        0.0000
     25 C          10.0197   41.9647    5.5906 C.3     1  UNL1        0.0005
     26 C           8.7019   42.5334    6.1406 C.3     1  UNL1        0.0000
     27 C           9.7806   40.5337    5.0834 C.3     1  UNL1        0.0086
     28 C          10.3264   39.6297    7.3607 C.3     1  UNL1        0.0086
@<TRIPOS>BOND
     1    16    17   am
     2     1     8   ar
     3     2     8   ar
     4     3     5   ar
     5     9     3    1
     6     9    10    1
     7    10    11    1
     8    11    12    1
     9    12    13    1
    10    13    14    1
    11    14     9    1
    12    19    16    1
    13    19    20    1
    14    21    20    1
    15    21    22    1
    16    23    22    1
    17    23    24    1
    18    23    28    1
    19    25    24    1
    20    25    26    1
    21    25    27    1
    22    26    21    1
    23    27    19    1
    24    28    19    1
    25    17     1    1
    26     5     4   ar
    27     5     2   ar
    28     6     7   ar
    29    16    15    2
    30     1     4   ar
    31     2     6   ar
    32     3     7   ar
    33    17    18    1
@<TRIPOS>MOLECULE
MolPort-010-852-089 41108806 ChemDiv-G952-0652 MCULE-7816905175 PubChem-52103581 ZINC000041108806
 28 33 0 0 0
SMALL
GASTEIGER

@<TRIPOS>ATOM
      1 C          17.9648   35.4909    6.7436 C.ar    1  UNL1        0.1879
      2 C          18.3846   36.3944    8.8952 C.ar    1  UNL1        0.2195
      3 C          16.4578   36.7355    9.6577 C.ar    1  UNL1        0.1639
      4 N          16.8116   35.7857    7.4083 N.ar    1  UNL1       -0.1400
      5 N          17.1205   36.2849    8.5935 N.ar    1  UNL1       -0.1881
      6 N          18.5853   36.9022   10.1230 N.ar    1  UNL1       -0.1202
      7 N          17.3552   37.1196   10.6069 N.ar    1  UNL1       -0.1310
      8 S          19.3857   35.8579    7.6654 S.2     1  UNL1       -0.0111
      9 C          14.9720   36.8037    9.7849 C.3     1  UNL1        0.0606
     10 C          14.3923   37.8493    8.8184 C.3     1  UNL1        0.0076
     11 C          14.1194   39.1769    9.5222 C.3     1  UNL1        0.0004
     12 C          13.1096   39.0067   10.6651 C.3     1  UNL1        0.0000
     13 C          13.1798   37.6349   11.3510 C.3     1  UNL1        0.0004
     14 C          14.5768   37.0305   11.2508 C.3     1  UNL1        0.0076
     15 O          18.8671   32.8270    5.9240 O.2     1  UNL1       -0.2747
     16 C          18.3605   33.5982    5.0640 C.2     1  UNL1        0.2266
     17 N          17.9495   34.9238    5.4282 N.am    1  UNL1       -0.2628
     18 H          17.6241   35.5019    4.7008 H       1  UNL1        0.1568
     19 C          18.2654   33.1629    3.6260 C.3     1  UNL1        0.0692
     20 C          18.9191   31.7789    3.4191 C.3     1  UNL1        0.0086
     21 C          18.8301   31.3616    1.9426 C.3     1  UNL1        0.0005
     22 C          17.3526   31.2905    1.5260 C.3     1  UNL1        0.0000
     23 C          16.6878   32.6631    1.7148 C.3     1  UNL1        0.0005
     24 C          17.4175   33.7031    0.8497 C.3     1  UNL1        0.0000
     25 C          18.8960   33.7849    1.2615 C.3     1  UNL1        0.0005
     26 C          19.5512   32.4068    1.0767 C.3     1  UNL1        0.0000
     27 C          18.9877   34.1944    2.7400 C.3     1  UNL1        0.0086
     28 C          16.7876   33.0738    3.1925 C.3     1  UNL1        0.0086
@<TRIPOS>BOND
     1    16    17   am
     2     1     8   ar
     3     2     8   ar
     4     3     5   ar
     5     9     3    1
     6     9    10    1
     7    10    11    1
     8    11    12    1
     9    12    13    1
    10    13    14    1
    11    14     9    1
    12    19    16    1
    13    19    20    1
    14    21    20    1
    15    21    22    1
    16    23    22    1
    17    23    24    1
    18    23    28    1
    19    25    24    1
    20    25    26    1
    21    25    27    1
    22    26    21    1
    23    27    19    1
    24    28    19    1
    25    17     1    1
    26     5     4   ar
    27     5     2   ar
    28     6     7   ar
    29    16    15    2
    30     1     4   ar
    31     2     6   ar
    32     3     7   ar
    33    17    18    1
@<TRIPOS>MOLECULE
MolPort-010-852-089 41108806 ChemDiv-G952-0652 MCULE-7816905175 PubChem-52103581 ZINC000041108806
 28 33 0 0 0
SMALL
GASTEIGER

@<TRIPOS>ATOM
      1 C          10.3623   41.6399    9.9254 C.ar    1  UNL1        0.1879
      2 C           8.8958   43.4220    9.3819 C.ar    1  UNL1        0.2195
      3 C           6.9977   42.5283    9.4758 C.ar    1  UNL1        0.1639
      4 N           9.0566   41.2477    9.9319 N.ar    1  UNL1       -0.1400
      5 N           8.2999   42.2865    9.6196 N.ar    1  UNL1       -0.1881
      6 N           8.0350   44.4102    9.0850 N.ar    1  UNL1       -0.1202
      7 N           6.8254   43.8377    9.1448 N.ar    1  UNL1       -0.1310
      8 S          10.5600   43.3152    9.5285 S.2     1  UNL1       -0.0111
      9 C           5.9079   41.5236    9.6528 C.3     1  UNL1        0.0606
     10 C           4.6511   41.9437    8.8734 C.3     1  UNL1        0.0076
     11 C           3.6295   42.6285    9.7787 C.3     1  UNL1        0.0004
     12 C           3.1717   41.6977   10.9096 C.3     1  UNL1        0.0000
     13 C           4.2551   40.7149   11.3762 C.3     1  UNL1        0.0004
     14 C           5.6551   41.2756   11.1465 C.3     1  UNL1        0.0076
     15 O          12.8350   41.1783    8.4238 O.2     1  UNL1       -0.2747
     16 C          12.6427   40.5532    9.5024 C.2     1  UNL1        0.2266
     17 N          11.4220   40.7275   10.2363 N.am    1  UNL1       -0.2628
     18 H          11.3006   40.1632   11.0338 H       1  UNL1        0.1568
     19 C          13.6576   39.5501    9.9821 C.3     1  UNL1        0.0692
     20 C          15.0847   39.9515    9.5486 C.3     1  UNL1        0.0086
     21 C          16.1029   38.9056   10.0296 C.3     1  UNL1        0.0005
     22 C          16.0470   38.8140   11.5626 C.3     1  UNL1        0.0000
     23 C          14.6357   38.4044   12.0123 C.3     1  UNL1        0.0005
     24 C          14.2855   37.0382   11.4014 C.3     1  UNL1        0.0000
     25 C          14.3347   37.1203    9.8675 C.3     1  UNL1        0.0005
     26 C          15.7468   37.5375    9.4266 C.3     1  UNL1        0.0000
     27 C          13.3227   38.1713    9.3842 C.3     1  UNL1        0.0086
     28 C          13.6249   39.4529   11.5213 C.3     1  UNL1        0.0086
@<TRIPOS>BOND
     1    16    17   am
     2     1     8   ar
     3     2     8   ar
     4     3     5   ar
     5     9     3    1
     6     9    10    1
     7    10    11    1
     8    11    12    1
     9    12    13    1
    10    13    14    1
    11    14     9    1
    12    19    16    1
    13    19    20    1
    14    21    20    1
    15    21    22    1
    16    23    22    1
    17    23    24    1
    18    23    28    1
    19    25    24    1
    20    25    26    1
    21    25    27    1
    22    26    21    1
    23    27    19    1
    24    28    19    1
    25    17     1    1
    26     5     4   ar
    27     5     2   ar
    28     6     7   ar
    29    16    15    2
    30     1     4   ar
    31     2     6   ar
    32     3     7   ar
    33    17    18    1
@<TRIPOS>MOLECULE
MolPort-010-852-089 41108806 ChemDiv-G952-0652 MCULE-7816905175 PubChem-52103581 ZINC000041108806
 28 33 0 0 0
SMALL
GASTEIGER

@<TRIPOS>ATOM
      1 C           9.0127   41.8996    9.1320 C.ar    1  UNL1        0.1879
      2 C           7.3507   43.5730    8.8883 C.ar    1  UNL1        0.2195
      3 C           5.5725   42.5555    9.3498 C.ar    1  UNL1        0.1639
      4 N           7.7630   41.4210    9.3929 N.ar    1  UNL1       -0.1400
      5 N           6.8911   42.4031    9.2361 N.ar    1  UNL1       -0.1881
      6 N           6.3835   44.4979    8.7668 N.ar    1  UNL1       -0.1202
      7 N           5.2505   43.8464    9.0609 N.ar    1  UNL1       -0.1310
      8 S           9.0148   43.5795    8.7068 S.2     1  UNL1       -0.0111
      9 C           4.6090   41.4822    9.7347 C.3     1  UNL1        0.0606
     10 C           3.1769   42.0373    9.8012 C.3     1  UNL1        0.0076
     11 C           2.7685   42.3723   11.2342 C.3     1  UNL1        0.0004
     12 C           2.8156   41.1302   12.1340 C.3     1  UNL1        0.0000
     13 C           3.8975   40.1177   11.7316 C.3     1  UNL1        0.0004
     14 C           5.0683   40.7994   11.0307 C.3     1  UNL1        0.0076
     15 O          10.5179   41.1850   11.5415 O.2     1  UNL1       -0.2747
     16 C          10.8644   40.6978   10.4308 C.2     1  UNL1        0.2266
     17 N          10.1721   41.0638    9.2284 N.am    1  UNL1       -0.2628
     18 H          10.5301   40.7043    8.3847 H       1  UNL1        0.1568
     19 C          12.0664   39.7954   10.3470 C.3     1  UNL1        0.0692
     20 C          12.7975   39.7146   11.7052 C.3     1  UNL1        0.0086
     21 C          14.0319   38.8059   11.5940 C.3     1  UNL1        0.0005
     22 C          13.5855   37.3963   11.1754 C.3     1  UNL1        0.0000
     23 C          12.8650   37.4555    9.8192 C.3     1  UNL1        0.0005
     24 C          13.8218   38.0282    8.7614 C.3     1  UNL1        0.0000
     25 C          14.2713   39.4403    9.1690 C.3     1  UNL1        0.0005
     26 C          14.9841   39.3733   10.5292 C.3     1  UNL1        0.0000
     27 C          13.0378   40.3493    9.2886 C.3     1  UNL1        0.0086
     28 C          11.6364   38.3710    9.9394 C.3     1  UNL1        0.0086
@<TRIPOS>BOND
     1    16    17   am
     2     1     8   ar
     3     2     8   ar
     4     3     5   ar
     5     9     3    1
     6     9    10    1
     7    10    11    1
     8    11    12    1
     9    12    13    1
    10    13    14    1
    11    14     9    1
    12    19    16    1
    13    19    20    1
    14    21    20    1
    15    21    22    1
    16    23    22    1
    17    23    24    1
    18    23    28    1
    19    25    24    1
    20    25    26    1
    21    25    27    1
    22    26    21    1
    23    27    19    1
    24    28    19    1
    25    17     1    1
    26     5     4   ar
    27     5     2   ar
    28     6     7   ar
    29    16    15    2
    30     1     4   ar
    31     2     6   ar
    32     3     7   ar
    33    17    18    1
@<TRIPOS>MOLECULE
MolPort-010-852-089 41108806 ChemDiv-G952-0652 MCULE-7816905175 PubChem-52103581 ZINC000041108806
 28 33 0 0 0
SMALL
GASTEIGER

@<TRIPOS>ATOM
      1 C          15.3871   37.5666    9.7406 C.ar    1  UNL1        0.1879
      2 C          14.3240   38.6790   11.5445 C.ar    1  UNL1        0.2195
      3 C          12.6479   39.5657   10.6419 C.ar    1  UNL1        0.1639
      4 N          14.2563   38.2174    9.3450 N.ar    1  UNL1       -0.1400
      5 N          13.7200   38.8138   10.3965 N.ar    1  UNL1       -0.1881
      6 N          13.6908   39.3152   12.5445 N.ar    1  UNL1       -0.1202
      7 N          12.6228   39.8804   11.9663 N.ar    1  UNL1       -0.1310
      8 S          15.7066   37.7416   11.4348 S.2     1  UNL1       -0.0111
      9 C          11.6392   39.9893    9.6263 C.3     1  UNL1        0.0606
     10 C          11.5017   38.9277    8.5228 C.3     1  UNL1        0.0076
     11 C          12.3199   39.2917    7.2857 C.3     1  UNL1        0.0004
     12 C          11.8640   40.6293    6.6874 C.3     1  UNL1        0.0000
     13 C          11.3405   41.6256    7.7318 C.3     1  UNL1        0.0004
     14 C          11.9777   41.3903    9.0977 C.3     1  UNL1        0.0076
     15 O          14.8543   34.8967    8.6589 O.2     1  UNL1       -0.2747
     16 C          15.8762   35.5264    8.2714 C.2     1  UNL1        0.2266
     17 N          16.1849   36.8175    8.8161 N.am    1  UNL1       -0.2628
     18 H          17.0301   37.2301    8.5252 H       1  UNL1        0.1568
     19 C          16.8295   34.8872    7.2973 C.3     1  UNL1        0.0692
     20 C          17.5697   35.9543    6.4613 C.3     1  UNL1        0.0086
     21 C          18.5221   35.2821    5.4597 C.3     1  UNL1        0.0005
     22 C          19.5511   34.4390    6.2290 C.3     1  UNL1        0.0000
     23 C          18.8327   33.3634    7.0589 C.3     1  UNL1        0.0005
     24 C          18.0219   32.4561    6.1199 C.3     1  UNL1        0.0000
     25 C          16.9865   33.2896    5.3483 C.3     1  UNL1        0.0005
     26 C          17.7125   34.3671    4.5271 C.3     1  UNL1        0.0000
     27 C          16.0375   33.9693    6.3480 C.3     1  UNL1        0.0086
     28 C          17.8788   34.0455    8.0525 C.3     1  UNL1        0.0086
@<TRIPOS>BOND
     1    16    17   am
     2     1     8   ar
     3     2     8   ar
     4     3     5   ar
     5     9     3    1
     6     9    10    1
     7    10    11    1
     8    11    12    1
     9    12    13    1
    10    13    14    1
    11    14     9    1
    12    19    16    1
    13    19    20    1
    14    21    20    1
    15    21    22    1
    16    23    22    1
    17    23    24    1
    18    23    28    1
    19    25    24    1
    20    25    26    1
    21    25    27    1
    22    26    21    1
    23    27    19    1
    24    28    19    1
    25    17     1    1
    26     5     4   ar
    27     5     2   ar
    28     6     7   ar
    29    16    15    2
    30     1     4   ar
    31     2     6   ar
    32     3     7   ar
    33    17    18    1
@<TRIPOS>MOLECULE
MolPort-010-852-089 41108806 ChemDiv-G952-0652 MCULE-7816905175 PubChem-52103581 ZINC000041108806
 28 33 0 0 0
SMALL
GASTEIGER

@<TRIPOS>ATOM
      1 C          18.8591   38.6663    4.7370 C.ar    1  UNL1        0.1879
      2 C          19.3782   37.1075    3.0275 C.ar    1  UNL1        0.2195
      3 C          18.7519   35.2755    3.8409 C.ar    1  UNL1        0.1639
      4 N          18.5211   37.3926    5.0866 N.ar    1  UNL1       -0.1400
      5 N          18.8394   36.5809    4.0920 N.ar    1  UNL1       -0.1881
      6 N          19.6520   36.1975    2.0774 N.ar    1  UNL1       -0.1202
      7 N          19.2524   35.0300    2.5988 N.ar    1  UNL1       -0.1310
      8 S          19.5593   38.7668    3.1550 S.2     1  UNL1       -0.0111
      9 C          18.1924   34.2523    4.7728 C.3     1  UNL1        0.0606
     10 C          18.3431   34.7086    6.2332 C.3     1  UNL1        0.0076
     11 C          19.5632   34.0750    6.8983 C.3     1  UNL1        0.0004
     12 C          19.4619   32.5439    6.9098 C.3     1  UNL1        0.0000
     13 C          18.7068   31.9666    5.7040 C.3     1  UNL1        0.0004
     14 C          18.8164   32.8792    4.4865 C.3     1  UNL1        0.0076
     15 O          18.4995   41.4842    4.0212 O.2     1  UNL1       -0.2747
     16 C          18.4110   41.1392    5.2313 C.2     1  UNL1        0.2266
     17 N          18.6250   39.7733    5.6156 N.am    1  UNL1       -0.2628
     18 H          18.6094   39.5773    6.5802 H       1  UNL1        0.1568
     19 C          18.1674   42.1773    6.2939 C.3     1  UNL1        0.0692
     20 C          18.4888   43.5947    5.7713 C.3     1  UNL1        0.0086
     21 C          18.2536   44.6372    6.8758 C.3     1  UNL1        0.0005
     22 C          16.7826   44.5825    7.3170 C.3     1  UNL1        0.0000
     23 C          16.4470   43.1811    7.8509 C.3     1  UNL1        0.0005
     24 C          17.3563   42.8637    9.0488 C.3     1  UNL1        0.0000
     25 C          18.8305   42.9120    8.6168 C.3     1  UNL1        0.0005
     26 C          19.1557   44.3141    8.0775 C.3     1  UNL1        0.0000
     27 C          19.0668   41.8756    7.5066 C.3     1  UNL1        0.0086
     28 C          16.6914   42.1459    6.7414 C.3     1  UNL1        0.0086
@<TRIPOS>BOND
     1    16    17   am
     2     1     8   ar
     3     2     8   ar
     4     3     5   ar
     5     9     3    1
     6     9    10    1
     7    10    11    1
     8    11    12    1
     9    12    13    1
    10    13    14    1
    11    14     9    1
    12    19    16    1
    13    19    20    1
    14    21    20    1
    15    21    22    1
    16    23    22    1
    17    23    24    1
    18    23    28    1
    19    25    24    1
    20    25    26    1
    21    25    27    1
    22    26    21    1
    23    27    19    1
    24    28    19    1
    25    17     1    1
    26     5     4   ar
    27     5     2   ar
    28     6     7   ar
    29    16    15    2
    30     1     4   ar
    31     2     6   ar
    32     3     7   ar
    33    17    18    1
@<TRIPOS>MOLECULE
MolPort-010-852-089 41108806 ChemDiv-G952-0652 MCULE-7816905175 PubChem-52103581 ZINC000041108806
 28 33 0 0 0
SMALL
GASTEIGER

@<TRIPOS>ATOM
      1 C          13.6867   39.2460   10.3341 C.ar    1  UNL1        0.1879
      2 C          11.5181   40.1405   10.6791 C.ar    1  UNL1        0.2195
      3 C          10.7585   40.3250    8.7299 C.ar    1  UNL1        0.1639
      4 N          13.0222   39.4433    9.1601 N.ar    1  UNL1       -0.1400
      5 N          11.8273   39.9432    9.4275 N.ar    1  UNL1       -0.1881
      6 N          10.2809   40.6403   10.8377 N.ar    1  UNL1       -0.1202
      7 N           9.7989   40.7578    9.5934 N.ar    1  UNL1       -0.1310
      8 S          12.7524   39.7010   11.7209 S.2     1  UNL1       -0.0111
      9 C          10.6368   40.2809    7.2427 C.3     1  UNL1        0.0606
     10 C           9.7656   41.4415    6.7351 C.3     1  UNL1        0.0076
     11 C           8.3292   40.9946    6.4723 C.3     1  UNL1        0.0004
     12 C           8.2732   39.8878    5.4108 C.3     1  UNL1        0.0000
     13 C           9.5038   38.9696    5.4118 C.3     1  UNL1        0.0004
     14 C          10.1465   38.8973    6.7933 C.3     1  UNL1        0.0076
     15 O          14.8236   37.1820    8.5935 O.2     1  UNL1       -0.2747
     16 C          15.5535   37.7197    9.4706 C.2     1  UNL1        0.2266
     17 N          15.0117   38.7024   10.3649 N.am    1  UNL1       -0.2628
     18 H          15.6110   39.0367   11.0708 H       1  UNL1        0.1568
     19 C          16.9791   37.2681    9.6433 C.3     1  UNL1        0.0692
     20 C          17.2640   36.8727   11.1089 C.3     1  UNL1        0.0086
     21 C          18.7283   36.4345   11.2689 C.3     1  UNL1        0.0005
     22 C          18.9964   35.2263   10.3580 C.3     1  UNL1        0.0000
     23 C          18.7286   35.6045    8.8927 C.3     1  UNL1        0.0005
     24 C          19.6515   36.7665    8.4922 C.3     1  UNL1        0.0000
     25 C          19.3883   37.9819    9.3953 C.3     1  UNL1        0.0005
     26 C          19.6512   37.5932   10.8590 C.3     1  UNL1        0.0000
     27 C          17.9223   38.4175    9.2432 C.3     1  UNL1        0.0086
     28 C          17.2641   36.0469    8.7448 C.3     1  UNL1        0.0086
@<TRIPOS>BOND
     1    16    17   am
     2     1     8   ar
     3     2     8   ar
     4     3     5   ar
     5     9     3    1
     6     9    10    1
     7    10    11    1
     8    11    12    1
     9    12    13    1
    10    13    14    1
    11    14     9    1
    12    19    16    1
    13    19    20    1
    14    21    20    1
    15    21    22    1
    16    23    22    1
    17    23    24    1
    18    23    28    1
    19    25    24    1
    20    25    26    1
    21    25    27    1
    22    26    21    1
    23    27    19    1
    24    28    19    1
    25    17     1    1
    26     5     4   ar
    27     5     2   ar
    28     6     7   ar
    29    16    15    2
    30     1     4   ar
    31     2     6   ar
    32     3     7   ar
    33    17    18    1
@<TRIPOS>MOLECULE
MolPort-010-852-089 41108806 ChemDiv-G952-0652 MCULE-7816905175 PubChem-52103581 ZINC000041108806
 28 33 0 0 0
SMALL
GASTEIGER

@<TRIPOS>ATOM
      1 C           9.8942   41.0783    9.5184 C.ar    1  UNL1        0.1879
      2 C          12.1275   41.3197    8.7596 C.ar    1  UNL1        0.2195
      3 C          13.1032   39.6615    9.6014 C.ar    1  UNL1        0.1639
      4 N          10.6996   40.0764    9.9724 N.ar    1  UNL1       -0.1400
      5 N          11.9242   40.2757    9.5143 N.ar    1  UNL1       -0.1881
      6 N          13.4007   41.4210    8.3420 N.ar    1  UNL1       -0.1202
      7 N          14.0210   40.3629    8.8807 N.ar    1  UNL1       -0.1310
      8 S          10.7365   42.2208    8.5242 S.2     1  UNL1       -0.0111
      9 C          13.3690   38.4064   10.3647 C.3     1  UNL1        0.0606
     10 C          14.7383   37.8199    9.9843 C.3     1  UNL1        0.0076
     11 C          14.6050   36.6994    8.9551 C.3     1  UNL1        0.0004
     12 C          13.7506   35.5441    9.4938 C.3     1  UNL1        0.0000
     13 C          12.6515   35.9918   10.4678 C.3     1  UNL1        0.0004
     14 C          12.2039   37.4228   10.1865 C.3     1  UNL1        0.0076
     15 O           7.7758   42.5573    8.1373 O.2     1  UNL1       -0.2747
     16 C           7.4776   41.8294    9.1235 C.2     1  UNL1        0.2266
     17 N           8.5003   41.1277    9.8450 N.am    1  UNL1       -0.2628
     18 H           8.2153   40.6300   10.6452 H       1  UNL1        0.1568
     19 C           6.0531   41.7624    9.6058 C.3     1  UNL1        0.0692
     20 C           5.9815   41.2447   11.0592 C.3     1  UNL1        0.0086
     21 C           4.5194   41.1641   11.5260 C.3     1  UNL1        0.0005
     22 C           3.8890   42.5638   11.4560 C.3     1  UNL1        0.0000
     23 C           3.9413   43.0911   10.0135 C.3     1  UNL1        0.0005
     24 C           3.1685   42.1315    9.0946 C.3     1  UNL1        0.0000
     25 C           3.7941   40.7289    9.1543 C.3     1  UNL1        0.0005
     26 C           3.7444   40.2122   10.6011 C.3     1  UNL1        0.0000
     27 C           5.2588   40.8080    8.6954 C.3     1  UNL1        0.0086
     28 C           5.4064   43.1620    9.5544 C.3     1  UNL1        0.0086
@<TRIPOS>BOND
     1    16    17   am
     2     1     8   ar
     3     2     8   ar
     4     3     5   ar
     5     9     3    1
     6     9    10    1
     7    10    11    1
     8    11    12    1
     9    12    13    1
    10    13    14    1
    11    14     9    1
    12    19    16    1
    13    19    20    1
    14    21    20    1
    15    21    22    1
    16    23    22    1
    17    23    24    1
    18    23    28    1
    19    25    24    1
    20    25    26    1
    21    25    27    1
    22    26    21    1
    23    27    19    1
    24    28    19    1
    25    17     1    1
    26     5     4   ar
    27     5     2   ar
    28     6     7   ar
    29    16    15    2
    30     1     4   ar
    31     2     6   ar
    32     3     7   ar
    33    17    18    1
@<TRIPOS>MOLECULE
MolPort-010-852-089 41108806 ChemDiv-G952-0652 MCULE-7816905175 PubChem-52103581 ZINC000041108806
 28 33 0 0 0
SMALL
GASTEIGER

@<TRIPOS>ATOM
      1 C          14.5326   38.9346    9.0591 C.ar    1  UNL1        0.1879
      2 C          13.3764   37.1444   10.0983 C.ar    1  UNL1        0.2195
      3 C          14.5064   35.4606    9.5520 C.ar    1  UNL1        0.1639
      4 N          15.1254   37.7318    8.8131 N.ar    1  UNL1       -0.1400
      5 N          14.4294   36.7839    9.4184 N.ar    1  UNL1       -0.1881
      6 N          12.7507   36.1067   10.6792 N.ar    1  UNL1       -0.1202
      7 N          13.4728   35.0341   10.3288 N.ar    1  UNL1       -0.1310
      8 S          13.1215   38.7983   10.0558 S.2     1  UNL1       -0.0111
      9 C          15.5591   34.5914    8.9481 C.3     1  UNL1        0.0606
     10 C          16.3583   35.3651    7.8868 C.3     1  UNL1        0.0076
     11 C          15.8576   35.0658    6.4755 C.3     1  UNL1        0.0004
     12 C          15.9860   33.5736    6.1412 C.3     1  UNL1        0.0000
     13 C          15.8183   32.6523    7.3580 C.3     1  UNL1        0.0004
     14 C          14.9343   33.2905    8.4249 C.3     1  UNL1        0.0076
     15 O          17.1008   40.1895    9.7010 O.2     1  UNL1       -0.2747
     16 C          16.3504   40.7257    8.8405 C.2     1  UNL1        0.2266
     17 N          15.0685   40.1565    8.5377 N.am    1  UNL1       -0.2628
     18 H          14.5000   40.6561    7.9080 H       1  UNL1        0.1568
     19 C          16.7581   42.0198    8.1883 C.3     1  UNL1        0.0692
     20 C          15.6983   42.4859    7.1660 C.3     1  UNL1        0.0086
     21 C          16.1419   43.7964    6.4968 C.3     1  UNL1        0.0005
     22 C          16.3169   44.8791    7.5731 C.3     1  UNL1        0.0000
     23 C          17.3770   44.4371    8.5942 C.3     1  UNL1        0.0005
     24 C          18.7138   44.2091    7.8706 C.3     1  UNL1        0.0000
     25 C          18.5502   43.1244    6.7941 C.3     1  UNL1        0.0005
     26 C          17.4835   43.5708    5.7816 C.3     1  UNL1        0.0000
     27 C          18.0990   41.8146    7.4598 C.3     1  UNL1        0.0086
     28 C          16.9271   43.1234    9.2529 C.3     1  UNL1        0.0086
@<TRIPOS>BOND
     1    16    17   am
     2     1     8   ar
     3     2     8   ar
     4     3     5   ar
     5     9     3    1
     6     9    10    1
     7    10    11    1
     8    11    12    1
     9    12    13    1
    10    13    14    1
    11    14     9    1
    12    19    16    1
    13    19    20    1
    14    21    20    1
    15    21    22    1
    16    23    22    1
    17    23    24    1
    18    23    28    1
    19    25    24    1
    20    25    26    1
    21    25    27    1
    22    26    21    1
    23    27    19    1
    24    28    19    1
    25    17     1    1
    26     5     4   ar
    27     5     2   ar
    28     6     7   ar
    29    16    15    2
    30     1     4   ar
    31     2     6   ar
    32     3     7   ar
    33    17    18    1
@<TRIPOS>MOLECULE
MolPort-010-852-089 41108806 ChemDiv-G952-0652 MCULE-7816905175 PubChem-52103581 ZINC000041108806
 28 33 0 0 0
SMALL
GASTEIGER

@<TRIPOS>ATOM
      1 C           9.3360   41.3003    8.0442 C.ar    1  UNL1        0.1879
      2 C          11.3415   41.5443    6.8031 C.ar    1  UNL1        0.2195
      3 C          12.8386   41.2310    8.2422 C.ar    1  UNL1        0.1639
      4 N          10.4426   41.1311    8.8223 N.ar    1  UNL1       -0.1400
      5 N          11.5187   41.2826    8.0684 N.ar    1  UNL1       -0.1881
      6 N          12.4977   41.6685    6.1297 N.ar    1  UNL1       -0.1202
      7 N          13.4508   41.4690    7.0496 N.ar    1  UNL1       -0.1310
      8 S           9.7223   41.6369    6.3887 S.2     1  UNL1       -0.0111
      9 C          13.5292   40.9539    9.5363 C.3     1  UNL1        0.0606
     10 C          14.9598   40.4475    9.2901 C.3     1  UNL1        0.0076
     11 C          15.0405   38.9247    9.3734 C.3     1  UNL1        0.0004
     12 C          14.6114   38.4168   10.7564 C.3     1  UNL1        0.0000
     13 C          13.5410   39.2883   11.4287 C.3     1  UNL1        0.0004
     14 C          12.6788   40.0098   10.3977 C.3     1  UNL1        0.0076
     15 O           7.6645   43.4266    9.1697 O.2     1  UNL1       -0.2747
     16 C           7.2025   42.2555    9.0910 C.2     1  UNL1        0.2266
     17 N           8.0139   41.1862    8.5838 N.am    1  UNL1       -0.2628
     18 H           7.6226   40.2832    8.6093 H       1  UNL1        0.1568
     19 C           5.8230   41.9541    9.6130 C.3     1  UNL1        0.0692
     20 C           5.1293   40.8704    8.7588 C.3     1  UNL1        0.0086
     21 C           3.7161   40.5916    9.2946 C.3     1  UNL1        0.0005
     22 C           3.8142   40.1035   10.7484 C.3     1  UNL1        0.0000
     23 C           4.4928   41.1748   11.6166 C.3     1  UNL1        0.0005
     24 C           3.6661   42.4695   11.5625 C.3     1  UNL1        0.0000
     25 C           3.5653   42.9684   10.1123 C.3     1  UNL1        0.0005
     26 C           2.8926   41.8886    9.2497 C.3     1  UNL1        0.0000
     27 C           4.9779   43.2405    9.5713 C.3     1  UNL1        0.0086
     28 C           5.9022   41.4506   11.0690 C.3     1  UNL1        0.0086
@<TRIPOS>BOND
     1    16    17   am
     2     1     8   ar
     3     2     8   ar
     4     3     5   ar
     5     9     3    1
     6     9    10    1
     7    10    11    1
     8    11    12    1
     9    12    13    1
    10    13    14    1
    11    14     9    1
    12    19    16    1
    13    19    20    1
    14    21    20    1
    15    21    22    1
    16    23    22    1
    17    23    24    1
    18    23    28    1
    19    25    24    1
    20    25    26    1
    21    25    27    1
    22    26    21    1
    23    27    19    1
    24    28    19    1
    25    17     1    1
    26     5     4   ar
    27     5     2   ar
    28     6     7   ar
    29    16    15    2
    30     1     4   ar
    31     2     6   ar
    32     3     7   ar
    33    17    18    1
