@<TRIPOS>MOLECULE
MolPort-008-370-653 CSSS00159509820 MCULE-4104381300 PubChem-46990737
 27 29 0 0 0
SMALL
GASTEIGER

@<TRIPOS>ATOM
      1 C          10.2405   41.9467    8.1231 C.2     1  UNL1        0.3098
      2 C           8.3181   40.7325    7.0074 C.3     1  UNL1        0.0971
      3 C           6.8393   40.5907    7.3190 C.3     1  UNL1        0.0476
      4 C           6.6544   41.0788    8.7526 C.3     1  UNL1        0.1263
      5 C           7.9306   41.7993    9.1500 C.3     1  UNL1        0.1192
      6 O          10.6610   42.6214    9.1019 O.2     1  UNL1       -0.2522
      7 N          11.1155   41.6200    7.0358 N.am    1  UNL1       -0.2396
      8 N           8.8798   41.5047    8.0972 N.am    1  UNL1       -0.2619
      9 H          10.7401   41.0906    6.2955 H       1  UNL1        0.1592
     10 C           4.2080   43.6435    8.5605 C.ar    1  UNL1        0.0801
     11 C           3.7236   44.9484    8.0392 C.3     1  UNL1        0.0540
     12 C           3.5102   42.8317    9.4405 C.ar    1  UNL1        0.0308
     13 C           4.3736   41.7652    9.6064 C.ar    1  UNL1        0.0571
     14 C           4.1016   40.5827   10.4729 C.3     1  UNL1        0.0517
     15 N           5.4903   41.9543    8.8705 N.ar    1  UNL1       -0.2554
     16 N           5.3948   43.1032    8.2274 N.ar    1  UNL1       -0.1740
     17 C          14.2332   43.0247    6.3429 C.ar    1  UNL1        0.1547
     18 C          14.5994   42.0627    7.2613 C.ar    1  UNL1        0.1253
     19 C          12.4916   42.0022    6.9407 C.ar    1  UNL1        0.2017
     20 N          13.4836   41.4124    7.6401 N.ar    1  UNL1       -0.2118
     21 N          12.9058   42.9957    6.1328 N.ar    1  UNL1       -0.3201
     22 H          12.3679   43.5627    5.5341 H       1  UNL1        0.1688
     23 C          15.1428   43.9600    5.6737 C.2     1  UNL1        0.3587
     24 O          15.0142   44.1893    4.4398 O.2     1  UNL1       -0.2432
     25 O          16.1517   44.5855    6.4124 O.3     1  UNL1       -0.4444
     26 C          17.8456   43.8377    7.9635 C.3     1  UNL1        0.0513
     27 C          17.4703   44.0597    6.5096 C.3     1  UNL1        0.2089
@<TRIPOS>BOND
     1    26    27    1
     2    27    25    1
     3    23    25    1
     4    23    17    1
     5    18    20   ar
     6    19     7    1
     7    19    21   ar
     8     1     8   am
     9     2     8    1
    10     2     3    1
    11     3     4    1
    12     4     5    1
    13     4    15    1
    14     5     8    1
    15    10    12   ar
    16    11    10    1
    17    13    15   ar
    18    14    13    1
    19     7     1   am
    20    15    16   ar
    21    21    17   ar
    22    23    24    2
    23    17    18   ar
    24    19    20   ar
    25     1     6    2
    26    10    16   ar
    27    12    13   ar
    28     7     9    1
    29    21    22    1
@<TRIPOS>MOLECULE
MolPort-008-370-653 CSSS00159509820 MCULE-4104381300 PubChem-46990737
 27 29 0 0 0
SMALL
GASTEIGER

@<TRIPOS>ATOM
      1 C          10.9630   41.8516    7.7192 C.2     1  UNL1        0.3098
      2 C           8.8560   41.7230    6.3196 C.3     1  UNL1        0.0971
      3 C           7.4231   41.3137    6.6084 C.3     1  UNL1        0.0476
      4 C           7.4457   40.5930    7.9529 C.3     1  UNL1        0.1263
      5 C           8.7968   40.8697    8.5884 C.3     1  UNL1        0.1192
      6 O          11.5373   41.6245    8.8186 O.2     1  UNL1       -0.2522
      7 N          11.6759   42.4705    6.6407 N.am    1  UNL1       -0.2396
      8 N           9.5893   41.4898    7.5474 N.am    1  UNL1       -0.2619
      9 H          11.1837   42.6260    5.8024 H       1  UNL1        0.1592
     10 C           4.3538   41.4514    9.4705 C.ar    1  UNL1        0.0801
     11 C           2.8702   41.5374    9.4511 C.3     1  UNL1        0.0540
     12 C           5.1591   41.8581   10.5224 C.ar    1  UNL1        0.0308
     13 C           6.4268   41.5723   10.0517 C.ar    1  UNL1        0.0571
     14 C           7.6869   41.8206   10.8089 C.3     1  UNL1        0.0517
     15 N           6.3517   41.0379    8.8134 N.ar    1  UNL1       -0.2554
     16 N           5.0844   40.9612    8.4519 N.ar    1  UNL1       -0.1740
     17 C          15.0791   42.9631    7.2316 C.ar    1  UNL1        0.1547
     18 C          14.8559   43.9332    6.2766 C.ar    1  UNL1        0.1253
     19 C          13.0466   42.8805    6.6856 C.ar    1  UNL1        0.2017
     20 N          13.5563   43.8764    5.9312 N.ar    1  UNL1       -0.2118
     21 N          13.9447   42.2927    7.4975 N.ar    1  UNL1       -0.3201
     22 H          13.8050   41.5525    8.1314 H       1  UNL1        0.1688
     23 C          16.3624   42.6814    7.8824 C.2     1  UNL1        0.3587
     24 O          16.6612   41.4974    8.1994 O.2     1  UNL1       -0.2432
     25 O          17.2425   43.7339    8.1520 O.3     1  UNL1       -0.4444
     26 C          18.0888   43.4157    5.9122 C.3     1  UNL1        0.0513
     27 C          18.1402   44.2526    7.1775 C.3     1  UNL1        0.2089
@<TRIPOS>BOND
     1    26    27    1
     2    27    25    1
     3    23    25    1
     4    23    17    1
     5    18    20   ar
     6    19     7    1
     7    19    21   ar
     8     1     8   am
     9     2     8    1
    10     2     3    1
    11     3     4    1
    12     4     5    1
    13     4    15    1
    14     5     8    1
    15    10    12   ar
    16    11    10    1
    17    13    15   ar
    18    14    13    1
    19     7     1   am
    20    15    16   ar
    21    21    17   ar
    22    23    24    2
    23    17    18   ar
    24    19    20   ar
    25     1     6    2
    26    10    16   ar
    27    12    13   ar
    28     7     9    1
    29    21    22    1
@<TRIPOS>MOLECULE
MolPort-008-370-653 CSSS00159509820 MCULE-4104381300 PubChem-46990737
 27 29 0 0 0
SMALL
GASTEIGER

@<TRIPOS>ATOM
      1 C          10.6297   41.7355    8.8792 C.2     1  UNL1        0.3098
      2 C          12.8672   40.6869    9.4346 C.3     1  UNL1        0.0971
      3 C          14.2596   40.7994    8.8406 C.3     1  UNL1        0.0476
      4 C          14.0936   41.4786    7.4846 C.3     1  UNL1        0.1263
      5 C          12.6872   42.0493    7.4370 C.3     1  UNL1        0.1192
      6 O           9.9442   42.4553    8.1034 O.2     1  UNL1       -0.2522
      7 N          10.0359   41.1566   10.0484 N.am    1  UNL1       -0.2396
      8 N          12.0105   41.4954    8.5910 N.am    1  UNL1       -0.2619
      9 H          10.6124   40.6018   10.6219 H       1  UNL1        0.1592
     10 C          16.9190   43.6270    7.5203 C.ar    1  UNL1        0.0801
     11 C          18.2640   44.0057    8.0269 C.3     1  UNL1        0.0540
     12 C          16.2043   44.3295    6.5631 C.ar    1  UNL1        0.0308
     13 C          15.0480   43.5809    6.4494 C.ar    1  UNL1        0.0571
     14 C          13.9169   43.9042    5.5333 C.3     1  UNL1        0.0517
     15 N          15.0980   42.5212    7.2854 N.ar    1  UNL1       -0.2554
     16 N          16.2417   42.5439    7.9442 N.ar    1  UNL1       -0.1740
     17 C           6.5731   41.4682   10.3409 C.ar    1  UNL1        0.1547
     18 C           6.9435   41.6320   11.6595 C.ar    1  UNL1        0.1253
     19 C           8.6714   41.3212   10.4484 C.ar    1  UNL1        0.2017
     20 N           8.2846   41.5373   11.7229 N.ar    1  UNL1       -0.2118
     21 N           7.6550   41.2715    9.5676 N.ar    1  UNL1       -0.3201
     22 H           7.6942   41.1265    8.5947 H       1  UNL1        0.1688
     23 C           5.2003   41.5004    9.8267 C.2     1  UNL1        0.3587
     24 O           4.3420   40.6903   10.2723 O.2     1  UNL1       -0.2432
     25 O           4.8575   42.4284    8.8387 O.3     1  UNL1       -0.4444
     26 C           4.0142   44.5566    8.0680 C.3     1  UNL1        0.0513
     27 C           3.8167   43.3832    9.0105 C.3     1  UNL1        0.2089
@<TRIPOS>BOND
     1    26    27    1
     2    27    25    1
     3    23    25    1
     4    23    17    1
     5    18    20   ar
     6    19     7    1
     7    19    21   ar
     8     1     8   am
     9     2     8    1
    10     2     3    1
    11     3     4    1
    12     4     5    1
    13     4    15    1
    14     5     8    1
    15    10    12   ar
    16    11    10    1
    17    13    15   ar
    18    14    13    1
    19     7     1   am
    20    15    16   ar
    21    21    17   ar
    22    23    24    2
    23    17    18   ar
    24    19    20   ar
    25     1     6    2
    26    10    16   ar
    27    12    13   ar
    28     7     9    1
    29    21    22    1
@<TRIPOS>MOLECULE
MolPort-008-370-653 CSSS00159509820 MCULE-4104381300 PubChem-46990737
 27 29 0 0 0
SMALL
GASTEIGER

@<TRIPOS>ATOM
      1 C           9.6104   41.7789    8.4785 C.2     1  UNL1        0.3098
      2 C          10.8186   40.9157   10.5302 C.3     1  UNL1        0.0971
      3 C          12.1951   40.3223   10.7702 C.3     1  UNL1        0.0476
      4 C          12.7538   39.9659    9.3960 C.3     1  UNL1        0.1263
      5 C          11.8695   40.6410    8.3625 C.3     1  UNL1        0.1192
      6 O           9.5974   41.9382    7.2277 O.2     1  UNL1       -0.2522
      7 N           8.5180   42.2432    9.2820 N.am    1  UNL1       -0.2396
      8 N          10.7242   41.1307    9.1005 N.am    1  UNL1       -0.2619
      9 H           8.5748   42.0945   10.2535 H       1  UNL1        0.1592
     10 C          15.8521   41.5032    8.5978 C.ar    1  UNL1        0.0801
     11 C          16.6545   42.5218    7.8714 C.3     1  UNL1        0.0540
     12 C          16.3696   40.5596    9.4708 C.ar    1  UNL1        0.0308
     13 C          15.2380   39.8722    9.8676 C.ar    1  UNL1        0.0571
     14 C          15.2338   38.7298   10.8257 C.3     1  UNL1        0.0517
     15 N          14.1464   40.3882    9.2621 N.ar    1  UNL1       -0.2554
     16 N          14.5160   41.3877    8.4831 N.ar    1  UNL1       -0.1740
     17 C           5.3599   43.5746    8.6284 C.ar    1  UNL1        0.1547
     18 C           6.0652   44.0877    7.5597 C.ar    1  UNL1        0.1253
     19 C           7.3510   42.9060    8.7842 C.ar    1  UNL1        0.2017
     20 N           7.3363   43.6577    7.6637 N.ar    1  UNL1       -0.2118
     21 N           6.1609   42.8275    9.4076 N.ar    1  UNL1       -0.3201
     22 H           5.9326   42.3415   10.2329 H       1  UNL1        0.1688
     23 C           3.9362   43.7961    8.9004 C.2     1  UNL1        0.3587
     24 O           3.3477   44.7944    8.4017 O.2     1  UNL1       -0.2432
     25 O           3.2445   42.8979    9.7188 O.3     1  UNL1       -0.4444
     26 C           3.6316   40.5932   10.3294 C.3     1  UNL1        0.0513
     27 C           2.9935   41.5499    9.3387 C.3     1  UNL1        0.2089
@<TRIPOS>BOND
     1    26    27    1
     2    27    25    1
     3    23    25    1
     4    23    17    1
     5    18    20   ar
     6    19     7    1
     7    19    21   ar
     8     1     8   am
     9     2     8    1
    10     2     3    1
    11     3     4    1
    12     4     5    1
    13     4    15    1
    14     5     8    1
    15    10    12   ar
    16    11    10    1
    17    13    15   ar
    18    14    13    1
    19     7     1   am
    20    15    16   ar
    21    21    17   ar
    22    23    24    2
    23    17    18   ar
    24    19    20   ar
    25     1     6    2
    26    10    16   ar
    27    12    13   ar
    28     7     9    1
    29    21    22    1
@<TRIPOS>MOLECULE
MolPort-008-370-653 CSSS00159509820 MCULE-4104381300 PubChem-46990737
 27 29 0 0 0
SMALL
GASTEIGER

@<TRIPOS>ATOM
      1 C          10.1699   41.5147    7.7335 C.2     1  UNL1        0.3098
      2 C          12.0857   40.9108    9.2761 C.3     1  UNL1        0.0971
      3 C          13.5973   40.9696    9.1511 C.3     1  UNL1        0.0476
      4 C          13.8972   41.1787    7.6699 C.3     1  UNL1        0.1263
      5 C          12.5923   41.5674    6.9977 C.3     1  UNL1        0.1192
      6 O           9.7879   41.8904    6.5920 O.2     1  UNL1       -0.2522
      7 N           9.2162   41.2693    8.7750 N.am    1  UNL1       -0.2396
      8 N          11.5656   41.3329    7.9913 N.am    1  UNL1       -0.2619
      9 H           9.5641   40.9768    9.6482 H       1  UNL1        0.1592
     10 C          16.7713   43.2616    7.7006 C.ar    1  UNL1        0.0801
     11 C          18.1319   43.6007    8.1934 C.3     1  UNL1        0.0540
     12 C          16.0589   43.9970    6.7667 C.ar    1  UNL1        0.0308
     13 C          14.8842   43.2770    6.6574 C.ar    1  UNL1        0.0571
     14 C          13.7475   43.6421    5.7643 C.3     1  UNL1        0.0517
     15 N          14.9222   42.2017    7.4739 N.ar    1  UNL1       -0.2554
     16 N          16.0757   42.1867    8.1156 N.ar    1  UNL1       -0.1740
     17 C           5.8468   42.1665    8.9003 C.ar    1  UNL1        0.1547
     18 C           5.7789   41.0886    8.0422 C.ar    1  UNL1        0.1253
     19 C           7.7981   41.4156    8.6463 C.ar    1  UNL1        0.2017
     20 N           7.0277   40.6125    7.8833 N.ar    1  UNL1       -0.2118
     21 N           7.1158   42.3821    9.2879 N.ar    1  UNL1       -0.3201
     22 H           7.4616   43.0772    9.8933 H       1  UNL1        0.1688
     23 C           4.7108   42.9802    9.3447 C.2     1  UNL1        0.3587
     24 O           4.6631   44.2069    9.0541 O.2     1  UNL1       -0.2432
     25 O           3.6913   42.3863   10.0949 O.3     1  UNL1       -0.4444
     26 C           3.9943   40.4869   11.5560 C.3     1  UNL1        0.0513
     27 C           3.8646   41.9957   11.4521 C.3     1  UNL1        0.2089
@<TRIPOS>BOND
     1    26    27    1
     2    27    25    1
     3    23    25    1
     4    23    17    1
     5    18    20   ar
     6    19     7    1
     7    19    21   ar
     8     1     8   am
     9     2     8    1
    10     2     3    1
    11     3     4    1
    12     4     5    1
    13     4    15    1
    14     5     8    1
    15    10    12   ar
    16    11    10    1
    17    13    15   ar
    18    14    13    1
    19     7     1   am
    20    15    16   ar
    21    21    17   ar
    22    23    24    2
    23    17    18   ar
    24    19    20   ar
    25     1     6    2
    26    10    16   ar
    27    12    13   ar
    28     7     9    1
    29    21    22    1
@<TRIPOS>MOLECULE
MolPort-008-370-653 CSSS00159509820 MCULE-4104381300 PubChem-46990737
 27 29 0 0 0
SMALL
GASTEIGER

@<TRIPOS>ATOM
      1 C          11.6879   40.5735    9.9306 C.2     1  UNL1        0.3098
      2 C          14.2053   40.5637    9.6522 C.3     1  UNL1        0.0971
      3 C          15.2616   39.4736    9.6606 C.3     1  UNL1        0.0476
      4 C          14.5911   38.2312   10.2389 C.3     1  UNL1        0.1263
      5 C          13.0955   38.4936   10.2539 C.3     1  UNL1        0.1192
      6 O          10.6342   39.9329   10.1941 O.2     1  UNL1       -0.2522
      7 N          11.6293   41.9695    9.6111 N.am    1  UNL1       -0.2396
      8 N          12.9512   39.9017    9.9498 N.am    1  UNL1       -0.2619
      9 H          12.4794   42.4252    9.4136 H       1  UNL1        0.1592
     10 C          15.9138   35.7736    8.0457 C.ar    1  UNL1        0.0801
     11 C          16.8825   35.3383    7.0058 C.3     1  UNL1        0.0540
     12 C          14.9235   34.9736    8.5929 C.ar    1  UNL1        0.0308
     13 C          14.3133   35.8305    9.4895 C.ar    1  UNL1        0.0571
     14 C          13.1609   35.4632   10.3613 C.3     1  UNL1        0.0517
     15 N          14.9145   37.0396    9.4573 N.ar    1  UNL1       -0.2554
     16 N          15.8959   37.0111    8.5748 N.ar    1  UNL1       -0.1740
     17 C           8.4987   43.3928    9.0217 C.ar    1  UNL1        0.1547
     18 C           9.0109   44.2996    9.9263 C.ar    1  UNL1        0.1253
     19 C          10.4332   42.7538    9.5562 C.ar    1  UNL1        0.2017
     20 N          10.2466   43.8871   10.2646 N.ar    1  UNL1       -0.2118
     21 N           9.3873   42.4133    8.7807 N.ar    1  UNL1       -0.3201
     22 H           9.2954   41.6365    8.1828 H       1  UNL1        0.1688
     23 C           7.1751   43.4631    8.3949 C.2     1  UNL1        0.3587
     24 O           7.0616   43.8750    7.2079 O.2     1  UNL1       -0.2432
     25 O           6.0469   43.0773    9.1252 O.3     1  UNL1       -0.4444
     26 C           3.6864   42.7584    9.5258 C.3     1  UNL1        0.0513
     27 C           4.7563   43.6294    8.8928 C.3     1  UNL1        0.2089
@<TRIPOS>BOND
     1    26    27    1
     2    27    25    1
     3    23    25    1
     4    23    17    1
     5    18    20   ar
     6    19     7    1
     7    19    21   ar
     8     1     8   am
     9     2     8    1
    10     2     3    1
    11     3     4    1
    12     4     5    1
    13     4    15    1
    14     5     8    1
    15    10    12   ar
    16    11    10    1
    17    13    15   ar
    18    14    13    1
    19     7     1   am
    20    15    16   ar
    21    21    17   ar
    22    23    24    2
    23    17    18   ar
    24    19    20   ar
    25     1     6    2
    26    10    16   ar
    27    12    13   ar
    28     7     9    1
    29    21    22    1
@<TRIPOS>MOLECULE
MolPort-008-370-653 CSSS00159509820 MCULE-4104381300 PubChem-46990737
 27 29 0 0 0
SMALL
GASTEIGER

@<TRIPOS>ATOM
      1 C          16.2935   34.9564    5.5479 C.2     1  UNL1        0.3098
      2 C          18.2340   33.5424    4.7419 C.3     1  UNL1        0.0971
      3 C          18.6212   32.9537    3.3974 C.3     1  UNL1        0.0476
      4 C          17.3851   33.0622    2.5097 C.3     1  UNL1        0.1263
      5 C          16.4100   33.9928    3.2092 C.3     1  UNL1        0.1192
      6 O          15.1815   35.4959    5.2983 O.2     1  UNL1       -0.2522
      7 N          16.9024   35.1085    6.8366 N.am    1  UNL1       -0.2396
      8 N          16.9529   34.1875    4.5372 N.am    1  UNL1       -0.2619
      9 H          17.7704   34.6674    6.9825 H       1  UNL1        0.1592
     10 C          18.7175   34.6824   -0.3538 C.ar    1  UNL1        0.0801
     11 C          19.6525   35.6461   -0.9910 C.3     1  UNL1        0.0540
     12 C          17.7987   33.8994   -1.0343 C.ar    1  UNL1        0.0308
     13 C          17.1923   33.1975   -0.0095 C.ar    1  UNL1        0.0571
     14 C          16.1064   32.1933   -0.1980 C.3     1  UNL1        0.0517
     15 N          17.7285   33.5550    1.1775 N.ar    1  UNL1       -0.2554
     16 N          18.6634   34.4643    0.9733 N.ar    1  UNL1       -0.1740
     17 C          14.9458   36.6344    9.2895 C.ar    1  UNL1        0.1547
     18 C          16.1864   37.1389    9.6203 C.ar    1  UNL1        0.1253
     19 C          16.3489   35.8508    7.9282 C.ar    1  UNL1        0.2017
     20 N          17.0790   36.6355    8.7479 N.ar    1  UNL1       -0.2118
     21 N          15.0362   35.8206    8.2234 N.ar    1  UNL1       -0.3201
     22 H          14.3176   35.3238    7.7695 H       1  UNL1        0.1688
     23 C          13.6887   36.9282    9.9847 C.2     1  UNL1        0.3587
     24 O          12.5922   36.8407    9.3670 O.2     1  UNL1       -0.2432
     25 O          13.7196   37.3104   11.3293 O.3     1  UNL1       -0.4444
     26 C          13.2957   39.6739   11.0675 C.3     1  UNL1        0.0513
     27 C          14.1310   38.6059   11.7499 C.3     1  UNL1        0.2089
@<TRIPOS>BOND
     1    26    27    1
     2    27    25    1
     3    23    25    1
     4    23    17    1
     5    18    20   ar
     6    19     7    1
     7    19    21   ar
     8     1     8   am
     9     2     8    1
    10     2     3    1
    11     3     4    1
    12     4     5    1
    13     4    15    1
    14     5     8    1
    15    10    12   ar
    16    11    10    1
    17    13    15   ar
    18    14    13    1
    19     7     1   am
    20    15    16   ar
    21    21    17   ar
    22    23    24    2
    23    17    18   ar
    24    19    20   ar
    25     1     6    2
    26    10    16   ar
    27    12    13   ar
    28     7     9    1
    29    21    22    1
@<TRIPOS>MOLECULE
MolPort-008-370-653 CSSS00159509820 MCULE-4104381300 PubChem-46990737
 27 29 0 0 0
SMALL
GASTEIGER

@<TRIPOS>ATOM
      1 C          15.8985   36.4455    8.4599 C.2     1  UNL1        0.3098
      2 C          18.3657   35.9179    8.2384 C.3     1  UNL1        0.0971
      3 C          19.1795   35.0716    7.2763 C.3     1  UNL1        0.0476
      4 C          18.1807   34.1982    6.5232 C.3     1  UNL1        0.1263
      5 C          16.7966   34.7589    6.7984 C.3     1  UNL1        0.1192
      6 O          14.7166   36.2354    8.0738 O.2     1  UNL1       -0.2522
      7 N          16.1659   37.3973    9.4978 N.am    1  UNL1       -0.2396
      8 N          16.9806   35.7294    7.8570 N.am    1  UNL1       -0.2619
      9 H          17.1050   37.5250    9.7644 H       1  UNL1        0.1592
     10 C          19.1058   34.8476    3.1584 C.ar    1  UNL1        0.0801
     11 C          19.6380   35.7473    2.1019 C.3     1  UNL1        0.0540
     12 C          18.6946   33.5401    2.9547 C.ar    1  UNL1        0.0308
     13 C          18.2972   33.1546    4.2211 C.ar    1  UNL1        0.0571
     14 C          17.7591   31.8076    4.5663 C.3     1  UNL1        0.0517
     15 N          18.4697   34.1735    5.0909 N.ar    1  UNL1       -0.2554
     16 N          18.9648   35.2134    4.4460 N.ar    1  UNL1       -0.1740
     17 C          13.5462   39.4694   10.5061 C.ar    1  UNL1        0.1547
     18 C          14.0282   39.0721   11.7361 C.ar    1  UNL1        0.1253
     19 C          15.1763   38.1769   10.1773 C.ar    1  UNL1        0.2017
     20 N          15.0693   38.2467   11.5206 N.ar    1  UNL1       -0.2118
     21 N          14.2628   38.9109    9.5154 N.ar    1  UNL1       -0.3201
     22 H          14.1475   39.0137    8.5431 H       1  UNL1        0.1688
     23 C          12.4137   40.3733   10.2816 C.2     1  UNL1        0.3587
     24 O          12.5466   41.3728    9.5233 O.2     1  UNL1       -0.2432
     25 O          11.1950   40.1204   10.9186 O.3     1  UNL1       -0.4444
     26 C           9.2659   41.5071   10.4829 C.3     1  UNL1        0.0513
     27 C          10.3789   41.1560   11.4534 C.3     1  UNL1        0.2089
@<TRIPOS>BOND
     1    26    27    1
     2    27    25    1
     3    23    25    1
     4    23    17    1
     5    18    20   ar
     6    19     7    1
     7    19    21   ar
     8     1     8   am
     9     2     8    1
    10     2     3    1
    11     3     4    1
    12     4     5    1
    13     4    15    1
    14     5     8    1
    15    10    12   ar
    16    11    10    1
    17    13    15   ar
    18    14    13    1
    19     7     1   am
    20    15    16   ar
    21    21    17   ar
    22    23    24    2
    23    17    18   ar
    24    19    20   ar
    25     1     6    2
    26    10    16   ar
    27    12    13   ar
    28     7     9    1
    29    21    22    1
@<TRIPOS>MOLECULE
MolPort-008-370-653 CSSS00159509820 MCULE-4104381300 PubChem-46990737
 27 29 0 0 0
SMALL
GASTEIGER

@<TRIPOS>ATOM
      1 C           9.0942   41.1635    9.4193 C.2     1  UNL1        0.3098
      2 C          11.1298   40.4417   10.7421 C.3     1  UNL1        0.0971
      3 C          12.5916   40.2286   10.3930 C.3     1  UNL1        0.0476
      4 C          12.6685   40.1982    8.8696 C.3     1  UNL1        0.1263
      5 C          11.3415   40.7149    8.3422 C.3     1  UNL1        0.1192
      6 O           8.5872   41.4534    8.3017 O.2     1  UNL1       -0.2522
      7 N           8.3013   41.2140   10.6123 N.am    1  UNL1       -0.2396
      8 N          10.4712   40.7824    9.4973 N.am    1  UNL1       -0.2619
      9 H           8.7427   40.9779   11.4600 H       1  UNL1        0.1592
     10 C          15.7458   41.8613    8.2665 C.ar    1  UNL1        0.0801
     11 C          17.1569   42.1641    8.6217 C.3     1  UNL1        0.0540
     12 C          15.0715   42.3863    7.1756 C.ar    1  UNL1        0.0308
     13 C          13.8230   41.8050    7.2923 C.ar    1  UNL1        0.0571
     14 C          12.6898   42.0371    6.3515 C.3     1  UNL1        0.0517
     15 N          13.7858   41.0012    8.3772 N.ar    1  UNL1       -0.2554
     16 N          14.9607   41.0315    8.9781 N.ar    1  UNL1       -0.1740
     17 C           5.0753   42.4655   10.1653 C.ar    1  UNL1        0.1547
     18 C           4.8922   41.7294   11.3175 C.ar    1  UNL1        0.1253
     19 C           6.9187   41.5803   10.6692 C.ar    1  UNL1        0.2017
     20 N           6.0725   41.1660   11.6352 N.ar    1  UNL1       -0.2118
     21 N           6.3499   42.3788    9.7473 N.ar    1  UNL1       -0.3201
     22 H           6.7658   42.7973    8.9591 H       1  UNL1        0.1688
     23 C           4.0429   43.2433    9.4730 C.2     1  UNL1        0.3587
     24 O           2.8671   42.7940    9.3881 O.2     1  UNL1       -0.2432
     25 O           4.3759   44.4772    8.9061 O.3     1  UNL1       -0.4444
     26 C           5.9267   44.2605    7.0670 C.3     1  UNL1        0.0513
     27 C           4.5293   44.6612    7.5035 C.3     1  UNL1        0.2089
@<TRIPOS>BOND
     1    26    27    1
     2    27    25    1
     3    23    25    1
     4    23    17    1
     5    18    20   ar
     6    19     7    1
     7    19    21   ar
     8     1     8   am
     9     2     8    1
    10     2     3    1
    11     3     4    1
    12     4     5    1
    13     4    15    1
    14     5     8    1
    15    10    12   ar
    16    11    10    1
    17    13    15   ar
    18    14    13    1
    19     7     1   am
    20    15    16   ar
    21    21    17   ar
    22    23    24    2
    23    17    18   ar
    24    19    20   ar
    25     1     6    2
    26    10    16   ar
    27    12    13   ar
    28     7     9    1
    29    21    22    1
@<TRIPOS>MOLECULE
MolPort-008-370-653 CSSS00159509820 MCULE-4104381300 PubChem-46990737
 27 29 0 0 0
SMALL
GASTEIGER

@<TRIPOS>ATOM
      1 C           8.8001   41.2982    9.2108 C.2     1  UNL1        0.3098
      2 C          10.9764   40.8426   10.4236 C.3     1  UNL1        0.0971
      3 C          12.4266   40.7480    9.9853 C.3     1  UNL1        0.0476
      4 C          12.4085   40.6417    8.4635 C.3     1  UNL1        0.1263
      5 C          11.0068   41.0029    8.0045 C.3     1  UNL1        0.1192
      6 O           8.1971   41.4780    8.1181 O.2     1  UNL1       -0.2522
      7 N           8.0840   41.3396   10.4518 N.am    1  UNL1       -0.2396
      8 N          10.2097   41.0519    9.2121 N.am    1  UNL1       -0.2619
      9 H           8.5996   41.1924   11.2775 H       1  UNL1        0.1592
     10 C          14.2492   43.0528    6.6200 C.ar    1  UNL1        0.0801
     11 C          14.3255   44.1578    5.6290 C.3     1  UNL1        0.0540
     12 C          15.3314   42.5258    7.3065 C.ar    1  UNL1        0.0308
     13 C          14.7404   41.5476    8.0838 C.ar    1  UNL1        0.0571
     14 C          15.4742   40.6614    9.0320 C.3     1  UNL1        0.0517
     15 N          13.4092   41.5173    7.8571 N.ar    1  UNL1       -0.2554
     16 N          13.1021   42.4370    6.9614 N.ar    1  UNL1       -0.1740
     17 C           4.7237   42.2296   10.1521 C.ar    1  UNL1        0.1547
     18 C           4.6996   41.6013   11.3800 C.ar    1  UNL1        0.1253
     19 C           6.6790   41.5780   10.5860 C.ar    1  UNL1        0.2017
     20 N           5.9508   41.1870   11.6525 N.ar    1  UNL1       -0.2118
     21 N           5.9673   42.2210    9.6418 N.ar    1  UNL1       -0.3201
     22 H           6.2809   42.5939    8.7864 H       1  UNL1        0.1688
     23 C           3.5707   42.8317    9.4755 C.2     1  UNL1        0.3587
     24 O           2.5831   42.1146    9.1559 O.2     1  UNL1       -0.2432
     25 O           3.5810   44.1993    9.1846 O.3     1  UNL1       -0.4444
     26 C           5.2469   44.8193    7.5491 C.3     1  UNL1        0.0513
     27 C           3.7672   44.7023    7.8667 C.3     1  UNL1        0.2089
@<TRIPOS>BOND
     1    26    27    1
     2    27    25    1
     3    23    25    1
     4    23    17    1
     5    18    20   ar
     6    19     7    1
     7    19    21   ar
     8     1     8   am
     9     2     8    1
    10     2     3    1
    11     3     4    1
    12     4     5    1
    13     4    15    1
    14     5     8    1
    15    10    12   ar
    16    11    10    1
    17    13    15   ar
    18    14    13    1
    19     7     1   am
    20    15    16   ar
    21    21    17   ar
    22    23    24    2
    23    17    18   ar
    24    19    20   ar
    25     1     6    2
    26    10    16   ar
    27    12    13   ar
    28     7     9    1
    29    21    22    1
