@<TRIPOS>MOLECULE
Molport-047-071-689 PubChem-132767284
 33 36 0 0 0
SMALL
GASTEIGER

@<TRIPOS>ATOM
      1 C          13.5192   42.0107    7.4006 C.ar    1  UNL1        0.0644
      2 C          14.5513   41.4117    8.1226 C.ar    1  UNL1        0.0492
      3 C          15.8207   41.9874    8.0785 C.ar    1  UNL1        0.1368
      4 C          15.0078   43.6836    6.6402 C.ar    1  UNL1        0.1406
      5 C          15.2563   44.9107    5.8401 C.3     1  UNL1        0.0737
      6 N          16.0230   43.1115    7.3384 N.ar    1  UNL1       -0.2159
      7 N          13.7661   43.1344    6.6733 N.ar    1  UNL1       -0.2348
      8 C           9.1266   41.7677    9.7420 C.2     1  UNL1        0.2492
      9 C           9.5124   40.6294    7.5169 C.3     1  UNL1        0.0937
     10 C           9.9436   41.2045    6.1655 C.3     1  UNL1        0.0220
     11 C          11.3823   41.7425    6.1564 C.3     1  UNL1        0.0094
     12 C          12.1529   41.4106    7.4348 C.3     1  UNL1        0.0603
     13 C          11.3809   41.8951    8.6635 C.3     1  UNL1        0.0996
     14 N           9.9732   41.4861    8.6112 N.am    1  UNL1       -0.2757
     15 O           9.6506   42.0176   10.8603 O.2     1  UNL1       -0.2699
     16 C           6.8511   41.5083   10.6740 C.2     1  UNL1        0.0243
     17 C           7.6551   41.7973    9.6558 C.2     1  UNL1        0.0595
     18 C           2.1617   42.2736   12.1109 C.3     1  UNL1        0.0594
     19 C           3.2799   41.9012   11.2056 C.ar    1  UNL1        0.0886
     20 C           5.3924   41.5515   10.5437 C.ar    1  UNL1        0.0881
     21 C           4.7565   41.1887    9.3568 C.ar    1  UNL1        0.0556
     22 N           4.5775   41.9445   11.5633 N.ar    1  UNL1       -0.2427
     23 S           3.1036   41.3779    9.6252 S.2     1  UNL1       -0.0702
     24 N          16.8877   41.3800    8.8167 N.pl3   1  UNL1       -0.2679
     25 H          17.7778   41.7923    8.7329 H       1  UNL1        0.1565
     26 C          16.7840   40.2303    9.6651 C.ar    1  UNL1        0.2211
     27 C          17.7204   38.2696   10.6061 C.ar    1  UNL1        0.0634
     28 C          18.8674   37.3340   10.7368 C.3     1  UNL1        0.0522
     29 C          16.5413   38.0300   11.3090 C.ar    1  UNL1        0.0296
     30 C          15.4886   38.9309   11.1596 C.ar    1  UNL1        0.0634
     31 C          14.2139   38.7121   11.8915 C.3     1  UNL1        0.0522
     32 N          17.8211   39.3590    9.8010 N.ar    1  UNL1       -0.2179
     33 N          15.6275   40.0093   10.3449 N.ar    1  UNL1       -0.2179
@<TRIPOS>BOND
     1    18    19    1
     2    19    23   ar
     3    20    22   ar
     4    20    16    1
     5    17     8    1
     6     8    14   am
     7     9    14    1
     8     9    10    1
     9    10    11    1
    10    11    12    1
    11    12    13    1
    12    12     1    1
    13    13    14    1
    14     1     7   ar
    15     2     3   ar
    16     3    24    1
    17    26    33   ar
    18    27    32   ar
    19    28    27    1
    20    29    30   ar
    21    31    30    1
    22     4     6   ar
    23     5     4    1
    24    21    23   ar
    25    24    26    1
    26    19    22   ar
    27    20    21   ar
    28    16    17    2
    29     8    15    2
    30     1     2   ar
    31     3     6   ar
    32    26    32   ar
    33    27    29   ar
    34    30    33   ar
    35     4     7   ar
    36    24    25    1
@<TRIPOS>MOLECULE
Molport-047-071-689 PubChem-132767284
 33 36 0 0 0
SMALL
GASTEIGER

@<TRIPOS>ATOM
      1 C           5.5685   41.9545   10.5338 C.ar    1  UNL1        0.0644
      2 C           4.6768   41.5440   11.5246 C.ar    1  UNL1        0.0492
      3 C           3.3663   42.0191   11.4843 C.ar    1  UNL1        0.1368
      4 C           3.8691   43.2568    9.5293 C.ar    1  UNL1        0.1406
      5 C           3.4309   44.1819    8.4523 C.3     1  UNL1        0.0737
      6 N           2.9893   42.8656   10.4875 N.ar    1  UNL1       -0.2159
      7 N           5.1488   42.8026    9.5554 N.ar    1  UNL1       -0.2348
      8 C          10.0236   41.9272    8.3007 C.2     1  UNL1        0.2492
      9 C           9.6676   40.8721   10.5714 C.3     1  UNL1        0.0937
     10 C           9.1620   41.4781   11.8829 C.3     1  UNL1        0.0220
     11 C           7.6878   41.9070   11.8347 C.3     1  UNL1        0.0094
     12 C           6.9756   41.4572   10.5585 C.3     1  UNL1        0.0603
     13 C           7.7401   41.9380    9.3237 C.3     1  UNL1        0.0996
     14 N           9.1723   41.6382    9.4261 N.am    1  UNL1       -0.2757
     15 O           9.5106   42.0829    7.1605 O.2     1  UNL1       -0.2699
     16 C          12.3195   41.9838    7.3844 C.2     1  UNL1        0.0243
     17 C          11.4865   42.0706    8.4164 C.2     1  UNL1        0.0595
     18 C          16.8186   43.9352    6.6152 C.3     1  UNL1        0.0594
     19 C          15.7935   43.0247    7.1886 C.ar    1  UNL1        0.0886
     20 C          13.7681   42.1341    7.5453 C.ar    1  UNL1        0.0881
     21 C          14.4956   41.3050    8.3987 C.ar    1  UNL1        0.0556
     22 N          14.4844   43.0826    6.8780 N.ar    1  UNL1       -0.2427
     23 S          16.1016   41.8043    8.2925 S.2     1  UNL1       -0.0702
     24 N           2.4425   41.6033   12.4973 N.pl3   1  UNL1       -0.2679
     25 H           2.5483   40.6895   12.8480 H       1  UNL1        0.1565
     26 C           1.3797   42.3896   13.0491 C.ar    1  UNL1        0.2211
     27 C           0.6181   44.3267   14.1779 C.ar    1  UNL1        0.0634
     28 C           0.9157   45.6260   14.8346 C.3     1  UNL1        0.0522
     29 C          -0.6962   43.8707   14.0977 C.ar    1  UNL1        0.0296
     30 C          -0.9340   42.6473   13.4741 C.ar    1  UNL1        0.0634
     31 C          -2.3211   42.1249   13.3673 C.3     1  UNL1        0.0522
     32 N           1.6275   43.5829   13.6555 N.ar    1  UNL1       -0.2179
     33 N           0.1023   41.9321   12.9634 N.ar    1  UNL1       -0.2179
@<TRIPOS>BOND
     1    18    19    1
     2    19    23   ar
     3    20    22   ar
     4    20    16    1
     5    17     8    1
     6     8    14   am
     7     9    14    1
     8     9    10    1
     9    10    11    1
    10    11    12    1
    11    12    13    1
    12    12     1    1
    13    13    14    1
    14     1     7   ar
    15     2     3   ar
    16     3    24    1
    17    26    33   ar
    18    27    32   ar
    19    28    27    1
    20    29    30   ar
    21    31    30    1
    22     4     6   ar
    23     5     4    1
    24    21    23   ar
    25    24    26    1
    26    19    22   ar
    27    20    21   ar
    28    16    17    2
    29     8    15    2
    30     1     2   ar
    31     3     6   ar
    32    26    32   ar
    33    27    29   ar
    34    30    33   ar
    35     4     7   ar
    36    24    25    1
@<TRIPOS>MOLECULE
Molport-047-071-689 PubChem-132767284
 33 36 0 0 0
SMALL
GASTEIGER

@<TRIPOS>ATOM
      1 C          13.5571   42.0310    7.4206 C.ar    1  UNL1        0.0644
      2 C          14.5806   41.4147    8.1401 C.ar    1  UNL1        0.0492
      3 C          15.8579   41.9731    8.0988 C.ar    1  UNL1        0.1368
      4 C          15.0687   43.6866    6.6679 C.ar    1  UNL1        0.1406
      5 C          15.3342   44.9138    5.8733 C.3     1  UNL1        0.0737
      6 N          16.0757   43.0976    7.3637 N.ar    1  UNL1       -0.2159
      7 N          13.8195   43.1544    6.6984 N.ar    1  UNL1       -0.2348
      8 C           9.1564   41.8484    9.7523 C.2     1  UNL1        0.2492
      9 C           9.5316   40.7045    7.5283 C.3     1  UNL1        0.0937
     10 C           9.9735   41.2734    6.1777 C.3     1  UNL1        0.0220
     11 C          11.4195   41.7917    6.1717 C.3     1  UNL1        0.0094
     12 C          12.1826   41.4496    7.4519 C.3     1  UNL1        0.0603
     13 C          11.4146   41.9448    8.6787 C.3     1  UNL1        0.0996
     14 N          10.0016   41.5551    8.6234 N.am    1  UNL1       -0.2757
     15 O           9.6813   42.0913   10.8717 O.2     1  UNL1       -0.2699
     16 C           6.8739   41.4813   10.6293 C.2     1  UNL1        0.0243
     17 C           7.6856   41.8980    9.6628 C.2     1  UNL1        0.0595
     18 C           2.1923   42.2589   12.0853 C.3     1  UNL1        0.0594
     19 C           3.3074   41.9049   11.1687 C.ar    1  UNL1        0.0886
     20 C           5.4162   41.5503   10.4980 C.ar    1  UNL1        0.0881
     21 C           4.7781   41.2414    9.2971 C.ar    1  UNL1        0.0556
     22 N           4.6046   41.9162   11.5302 N.ar    1  UNL1       -0.2427
     23 S           3.1274   41.4439    9.5694 S.2     1  UNL1       -0.0702
     24 N          16.9162   41.3478    8.8345 N.pl3   1  UNL1       -0.2679
     25 H          17.8107   41.7519    8.7576 H       1  UNL1        0.1565
     26 C          16.7981   40.1910    9.6713 C.ar    1  UNL1        0.2211
     27 C          15.5460   38.8407   11.1597 C.ar    1  UNL1        0.0634
     28 C          14.2877   38.5879   11.9085 C.3     1  UNL1        0.0522
     29 C          16.6139   37.9522   11.2702 C.ar    1  UNL1        0.0296
     30 C          17.7767   38.2245   10.5520 C.ar    1  UNL1        0.0634
     31 C          18.9386   37.3025   10.6419 C.3     1  UNL1        0.0522
     32 N          15.6556   39.9383   10.3670 N.ar    1  UNL1       -0.2179
     33 N          17.8481   39.3329    9.7693 N.ar    1  UNL1       -0.2179
@<TRIPOS>BOND
     1    18    19    1
     2    19    23   ar
     3    20    22   ar
     4    20    16    1
     5    17     8    1
     6     8    14   am
     7     9    14    1
     8     9    10    1
     9    10    11    1
    10    11    12    1
    11    12    13    1
    12    12     1    1
    13    13    14    1
    14     1     7   ar
    15     2     3   ar
    16     3    24    1
    17    26    33   ar
    18    27    32   ar
    19    28    27    1
    20    29    30   ar
    21    31    30    1
    22     4     6   ar
    23     5     4    1
    24    21    23   ar
    25    24    26    1
    26    19    22   ar
    27    20    21   ar
    28    16    17    2
    29     8    15    2
    30     1     2   ar
    31     3     6   ar
    32    26    32   ar
    33    27    29   ar
    34    30    33   ar
    35     4     7   ar
    36    24    25    1
@<TRIPOS>MOLECULE
Molport-047-071-689 PubChem-132767284
 33 36 0 0 0
SMALL
GASTEIGER

@<TRIPOS>ATOM
      1 C          10.4908   40.6866    9.6783 C.ar    1  UNL1        0.0644
      2 C          11.1664   41.3570    8.6589 C.ar    1  UNL1        0.0492
      3 C          12.0950   40.6512    7.8944 C.ar    1  UNL1        0.1368
      4 C          11.6539   38.6954    9.1540 C.ar    1  UNL1        0.1406
      5 C          11.9185   37.2576    9.4199 C.3     1  UNL1        0.0737
      6 N          12.3196   39.3349    8.1576 N.ar    1  UNL1       -0.2159
      7 N          10.7467   39.3695    9.9071 N.ar    1  UNL1       -0.2348
      8 C           5.6761   41.6288   10.5542 C.2     1  UNL1        0.2492
      9 C           7.4979   42.4756   12.0903 C.3     1  UNL1        0.0937
     10 C           8.5717   41.7173   12.8744 C.3     1  UNL1        0.0220
     11 C           9.6204   41.0369   11.9818 C.3     1  UNL1        0.0094
     12 C           9.4925   41.4237   10.5079 C.3     1  UNL1        0.0603
     13 C           8.0718   41.1558   10.0079 C.3     1  UNL1        0.0996
     14 N           7.0657   41.6989   10.9269 N.am    1  UNL1       -0.2757
     15 O           5.3678   41.4483    9.3459 O.2     1  UNL1       -0.2699
     16 C           3.3379   42.0990   11.2066 C.2     1  UNL1        0.0243
     17 C           4.5765   41.7411   11.5299 C.2     1  UNL1        0.0595
     18 C          -0.1720   44.3058   13.9364 C.3     1  UNL1        0.0594
     19 C           0.6928   43.2058   13.4356 C.ar    1  UNL1        0.0886
     20 C           2.2746   42.1967   12.2099 C.ar    1  UNL1        0.0881
     21 C           1.8672   41.0867   12.9493 C.ar    1  UNL1        0.0556
     22 N           1.6265   43.3654   12.4785 N.ar    1  UNL1       -0.2427
     23 S           0.6419   41.6218   13.9751 S.2     1  UNL1       -0.0702
     24 N          12.7943   41.3306    6.8447 N.pl3   1  UNL1       -0.2679
     25 H          12.4165   41.2575    5.9385 H       1  UNL1        0.1565
     26 C          13.9904   42.1060    6.9870 C.ar    1  UNL1        0.2211
     27 C          16.1518   42.4153    7.9032 C.ar    1  UNL1        0.0634
     28 C          17.2594   41.9255    8.7641 C.3     1  UNL1        0.0522
     29 C          16.2748   43.6304    7.2324 C.ar    1  UNL1        0.0296
     30 C          15.2139   44.0550    6.4347 C.ar    1  UNL1        0.0634
     31 C          15.3047   45.3448    5.7023 C.3     1  UNL1        0.0522
     32 N          15.0186   41.6782    7.7699 N.ar    1  UNL1       -0.2179
     33 N          14.0964   43.2896    6.3264 N.ar    1  UNL1       -0.2179
@<TRIPOS>BOND
     1    18    19    1
     2    19    23   ar
     3    20    22   ar
     4    20    16    1
     5    17     8    1
     6     8    14   am
     7     9    14    1
     8     9    10    1
     9    10    11    1
    10    11    12    1
    11    12    13    1
    12    12     1    1
    13    13    14    1
    14     1     7   ar
    15     2     3   ar
    16     3    24    1
    17    26    33   ar
    18    27    32   ar
    19    28    27    1
    20    29    30   ar
    21    31    30    1
    22     4     6   ar
    23     5     4    1
    24    21    23   ar
    25    24    26    1
    26    19    22   ar
    27    20    21   ar
    28    16    17    2
    29     8    15    2
    30     1     2   ar
    31     3     6   ar
    32    26    32   ar
    33    27    29   ar
    34    30    33   ar
    35     4     7   ar
    36    24    25    1
@<TRIPOS>MOLECULE
Molport-047-071-689 PubChem-132767284
 33 36 0 0 0
SMALL
GASTEIGER

@<TRIPOS>ATOM
      1 C           5.5142   41.9788   10.5591 C.ar    1  UNL1        0.0644
      2 C           4.6009   41.5567   11.5250 C.ar    1  UNL1        0.0492
      3 C           3.2944   42.0412   11.4678 C.ar    1  UNL1        0.1368
      4 C           3.8430   43.3101    9.5455 C.ar    1  UNL1        0.1406
      5 C           3.4318   44.2571    8.4769 C.3     1  UNL1        0.0737
      6 N           2.9422   42.9078   10.4793 N.ar    1  UNL1       -0.2159
      7 N           5.1190   42.8469    9.5881 N.ar    1  UNL1       -0.2348
      8 C           9.9800   41.8683    8.3500 C.2     1  UNL1        0.2492
      9 C           9.6048   40.8670   10.6418 C.3     1  UNL1        0.0937
     10 C           9.0973   41.5061   11.9369 C.3     1  UNL1        0.0220
     11 C           7.6267   41.9447   11.8716 C.3     1  UNL1        0.0094
     12 C           6.9174   41.4717   10.6021 C.3     1  UNL1        0.0603
     13 C           7.6916   41.9189    9.3608 C.3     1  UNL1        0.0996
     14 N           9.1210   41.6109    9.4772 N.am    1  UNL1       -0.2757
     15 O           9.4738   42.0021    7.2040 O.2     1  UNL1       -0.2699
     16 C          12.2962   41.0090    8.2452 C.2     1  UNL1        0.0243
     17 C          11.4433   42.0033    8.4699 C.2     1  UNL1        0.0595
     18 C          16.8708   40.1123    9.9512 C.3     1  UNL1        0.0594
     19 C          15.8046   40.7729    9.1540 C.ar    1  UNL1        0.0886
     20 C          13.7445   41.1884    8.3754 C.ar    1  UNL1        0.0881
     21 C          14.4253   42.1644    7.6482 C.ar    1  UNL1        0.0556
     22 N          14.5057   40.4211    9.2059 N.ar    1  UNL1       -0.2427
     23 S          16.0482   42.0375    8.0844 S.2     1  UNL1       -0.0702
     24 N           2.3485   41.6136   12.4551 N.pl3   1  UNL1       -0.2679
     25 H           2.4162   40.6805   12.7616 H       1  UNL1        0.1565
     26 C           1.3134   42.4135   13.0394 C.ar    1  UNL1        0.2211
     27 C          -0.9716   42.7927   13.5306 C.ar    1  UNL1        0.0634
     28 C          -2.3889   42.3543   13.4472 C.3     1  UNL1        0.0522
     29 C          -0.6467   43.9833   14.1777 C.ar    1  UNL1        0.0296
     30 C           0.6939   44.3597   14.2346 C.ar    1  UNL1        0.0634
     31 C           1.0830   45.6220   14.9154 C.3     1  UNL1        0.0522
     32 N           0.0080   42.0327   12.9758 N.ar    1  UNL1       -0.2179
     33 N           1.6453   43.5726   13.6676 N.ar    1  UNL1       -0.2179
@<TRIPOS>BOND
     1    18    19    1
     2    19    23   ar
     3    20    22   ar
     4    20    16    1
     5    17     8    1
     6     8    14   am
     7     9    14    1
     8     9    10    1
     9    10    11    1
    10    11    12    1
    11    12    13    1
    12    12     1    1
    13    13    14    1
    14     1     7   ar
    15     2     3   ar
    16     3    24    1
    17    26    33   ar
    18    27    32   ar
    19    28    27    1
    20    29    30   ar
    21    31    30    1
    22     4     6   ar
    23     5     4    1
    24    21    23   ar
    25    24    26    1
    26    19    22   ar
    27    20    21   ar
    28    16    17    2
    29     8    15    2
    30     1     2   ar
    31     3     6   ar
    32    26    32   ar
    33    27    29   ar
    34    30    33   ar
    35     4     7   ar
    36    24    25    1
@<TRIPOS>MOLECULE
Molport-047-071-689 PubChem-132767284
 33 36 0 0 0
SMALL
GASTEIGER

@<TRIPOS>ATOM
      1 C          12.0326   39.1030    8.9426 C.ar    1  UNL1        0.0644
      2 C          12.9267   39.9505    8.2887 C.ar    1  UNL1        0.0492
      3 C          12.5292   41.2584    8.0128 C.ar    1  UNL1        0.1368
      4 C          10.4283   40.8387    9.0210 C.ar    1  UNL1        0.1406
      5 C           9.0793   41.3203    9.4159 C.3     1  UNL1        0.0737
      6 N          11.2883   41.6758    8.3847 N.ar    1  UNL1       -0.2159
      7 N          10.8011   39.5621    9.2964 N.ar    1  UNL1       -0.2348
      8 C          15.3190   35.4430    8.1426 C.2     1  UNL1        0.2492
      9 C          13.5007   35.2396    9.8886 C.3     1  UNL1        0.0937
     10 C          13.1874   36.1122   11.1065 C.3     1  UNL1        0.0220
     11 C          12.7017   37.5236   10.7438 C.3     1  UNL1        0.0094
     12 C          12.4387   37.6994    9.2477 C.3     1  UNL1        0.0603
     13 C          13.6768   37.3075    8.4392 C.3     1  UNL1        0.0996
     14 N          14.2153   36.0134    8.8715 N.am    1  UNL1       -0.2757
     15 O          15.5677   35.8511    6.9768 O.2     1  UNL1       -0.2699
     16 C          17.2371   33.8850    8.0535 C.2     1  UNL1        0.0243
     17 C          16.1995   34.4019    8.7038 C.2     1  UNL1        0.0595
     18 C          19.3653   29.4227    8.4996 C.3     1  UNL1        0.0594
     19 C          19.0408   30.8324    8.8400 C.ar    1  UNL1        0.0886
     20 C          18.0869   32.8516    8.6507 C.ar    1  UNL1        0.0881
     21 C          18.8246   33.0954    9.8087 C.ar    1  UNL1        0.0556
     22 N          18.2064   31.6032    8.1166 N.ar    1  UNL1       -0.2427
     23 S          19.6521   31.6688   10.1551 S.2     1  UNL1       -0.0702
     24 N          13.4402   42.1370    7.3415 N.pl3   1  UNL1       -0.2679
     25 H          13.0630   42.7209    6.6443 H       1  UNL1        0.1565
     26 C          14.8472   42.2476    7.5873 C.ar    1  UNL1        0.2211
     27 C          16.9408   43.2705    7.1663 C.ar    1  UNL1        0.0634
     28 C          17.7473   44.2832    6.4370 C.3     1  UNL1        0.0522
     29 C          17.5522   42.4261    8.0910 C.ar    1  UNL1        0.0296
     30 C          16.7614   41.4897    8.7542 C.ar    1  UNL1        0.0634
     31 C          17.3741   40.5704    9.7481 C.3     1  UNL1        0.0522
     32 N          15.6069   43.1675    6.9315 N.ar    1  UNL1       -0.2179
     33 N          15.4301   41.4172    8.4923 N.ar    1  UNL1       -0.2179
@<TRIPOS>BOND
     1    18    19    1
     2    19    23   ar
     3    20    22   ar
     4    20    16    1
     5    17     8    1
     6     8    14   am
     7     9    14    1
     8     9    10    1
     9    10    11    1
    10    11    12    1
    11    12    13    1
    12    12     1    1
    13    13    14    1
    14     1     7   ar
    15     2     3   ar
    16     3    24    1
    17    26    33   ar
    18    27    32   ar
    19    28    27    1
    20    29    30   ar
    21    31    30    1
    22     4     6   ar
    23     5     4    1
    24    21    23   ar
    25    24    26    1
    26    19    22   ar
    27    20    21   ar
    28    16    17    2
    29     8    15    2
    30     1     2   ar
    31     3     6   ar
    32    26    32   ar
    33    27    29   ar
    34    30    33   ar
    35     4     7   ar
    36    24    25    1
@<TRIPOS>MOLECULE
Molport-047-071-689 PubChem-132767284
 33 36 0 0 0
SMALL
GASTEIGER

@<TRIPOS>ATOM
      1 C          14.3206   42.0247    7.5703 C.ar    1  UNL1        0.0644
      2 C          15.2479   41.3599    8.3724 C.ar    1  UNL1        0.0492
      3 C          16.5564   41.8399    8.4214 C.ar    1  UNL1        0.1368
      4 C          15.9826   43.5742    6.9149 C.ar    1  UNL1        0.1406
      5 C          16.3813   44.7701    6.1284 C.3     1  UNL1        0.0737
      6 N          16.8969   42.9371    7.6917 N.ar    1  UNL1       -0.2159
      7 N          14.7045   43.1184    6.8569 N.ar    1  UNL1       -0.2348
      8 C           9.8326   41.9024    9.7333 C.2     1  UNL1        0.2492
      9 C          10.2242   40.9408    7.4273 C.3     1  UNL1        0.0937
     10 C          10.7484   41.6002    6.1492 C.3     1  UNL1        0.0220
     11 C          12.2210   42.0281    6.2369 C.3     1  UNL1        0.0094
     12 C          12.9147   41.5274    7.5043 C.3     1  UNL1        0.0603
     13 C          12.1312   41.9569    8.7460 C.3     1  UNL1        0.0996
     14 N          10.7011   41.6602    8.6100 N.am    1  UNL1       -0.2757
     15 O          10.3283   42.0121   10.8865 O.2     1  UNL1       -0.2699
     16 C           7.7788   43.1499    9.1503 C.2     1  UNL1        0.0243
     17 C           8.3714   42.0490    9.6016 C.2     1  UNL1        0.0595
     18 C           3.4368   45.1213    7.7714 C.3     1  UNL1        0.0594
     19 C           4.3685   44.1527    8.4057 C.ar    1  UNL1        0.0886
     20 C           6.3217   43.2516    9.0348 C.ar    1  UNL1        0.0881
     21 C           5.4782   42.2947    9.5984 C.ar    1  UNL1        0.0556
     22 N           5.7092   44.2763    8.3770 N.ar    1  UNL1       -0.2427
     23 S           3.9039   42.7787    9.2418 S.2     1  UNL1       -0.0702
     24 N          17.5165   41.1642    9.2423 N.pl3   1  UNL1       -0.2679
     25 H          18.4017   41.5860    9.3306 H       1  UNL1        0.1565
     26 C          17.3124   39.9339    9.9472 C.ar    1  UNL1        0.2211
     27 C          18.0858   37.8133   10.6625 C.ar    1  UNL1        0.0634
     28 C          19.1602   36.7874   10.6974 C.3     1  UNL1        0.0522
     29 C          16.8772   37.5801   11.3157 C.ar    1  UNL1        0.0296
     30 C          15.8948   38.5668   11.2594 C.ar    1  UNL1        0.0634
     31 C          14.5917   38.3578   11.9425 C.3     1  UNL1        0.0522
     32 N          18.2817   38.9791    9.9934 N.ar    1  UNL1       -0.2179
     33 N          16.1282   39.7201   10.5799 N.ar    1  UNL1       -0.2179
@<TRIPOS>BOND
     1    18    19    1
     2    19    23   ar
     3    20    22   ar
     4    20    16    1
     5    17     8    1
     6     8    14   am
     7     9    14    1
     8     9    10    1
     9    10    11    1
    10    11    12    1
    11    12    13    1
    12    12     1    1
    13    13    14    1
    14     1     7   ar
    15     2     3   ar
    16     3    24    1
    17    26    33   ar
    18    27    32   ar
    19    28    27    1
    20    29    30   ar
    21    31    30    1
    22     4     6   ar
    23     5     4    1
    24    21    23   ar
    25    24    26    1
    26    19    22   ar
    27    20    21   ar
    28    16    17    2
    29     8    15    2
    30     1     2   ar
    31     3     6   ar
    32    26    32   ar
    33    27    29   ar
    34    30    33   ar
    35     4     7   ar
    36    24    25    1
@<TRIPOS>MOLECULE
Molport-047-071-689 PubChem-132767284
 33 36 0 0 0
SMALL
GASTEIGER

@<TRIPOS>ATOM
      1 C           5.6350   42.5059    9.5319 C.ar    1  UNL1        0.0644
      2 C           4.9731   41.9757   10.6392 C.ar    1  UNL1        0.0492
      3 C           3.6523   42.3561   10.8749 C.ar    1  UNL1        0.1368
      4 C           3.7010   43.7371    8.9522 C.ar    1  UNL1        0.1406
      5 C           3.0121   44.6884    8.0420 C.3     1  UNL1        0.0737
      6 N           3.0433   43.2290   10.0266 N.ar    1  UNL1       -0.2159
      7 N           4.9876   43.3760    8.7096 N.ar    1  UNL1       -0.2348
      8 C           9.9952   41.0354   11.4458 C.2     1  UNL1        0.2492
      9 C           9.5915   41.0975    8.9500 C.3     1  UNL1        0.0937
     10 C           8.5371   40.3916    8.0939 C.3     1  UNL1        0.0220
     11 C           7.1049   40.8826    8.3526 C.3     1  UNL1        0.0094
     12 C           7.0489   42.1111    9.2615 C.3     1  UNL1        0.0603
     13 C           7.7938   41.8404   10.5699 C.3     1  UNL1        0.0996
     14 N           9.1161   41.2542   10.3259 N.am    1  UNL1       -0.2757
     15 O           9.7887   41.6529   12.5245 O.2     1  UNL1       -0.2699
     16 C          12.1911   40.2598   10.6149 C.2     1  UNL1        0.0243
     17 C          11.1327   40.0984   11.4026 C.2     1  UNL1        0.0595
     18 C          15.3090   36.9067    8.6975 C.3     1  UNL1        0.0594
     19 C          14.7017   37.7904    9.7266 C.ar    1  UNL1        0.0886
     20 C          13.3007   39.3030   10.6052 C.ar    1  UNL1        0.0881
     21 C          14.0576   39.0545   11.7498 C.ar    1  UNL1        0.0556
     22 N          13.6563   38.6055    9.4894 N.ar    1  UNL1       -0.2427
     23 S          15.2141   37.9081   11.3160 S.2     1  UNL1       -0.0702
     24 N           2.9635   41.8172   12.0095 N.pl3   1  UNL1       -0.2679
     25 H           3.2705   40.9431   12.3425 H       1  UNL1        0.1565
     26 C           1.8707   42.4279   12.7061 C.ar    1  UNL1        0.2211
     27 C           1.0057   44.1496   14.0824 C.ar    1  UNL1        0.0634
     28 C           1.2212   45.3988   14.8576 C.3     1  UNL1        0.0522
     29 C          -0.2604   43.5697   14.0317 C.ar    1  UNL1        0.0296
     30 C          -0.4214   42.3984   13.2940 C.ar    1  UNL1        0.0634
     31 C          -1.7551   41.7481   13.2142 C.3     1  UNL1        0.0522
     32 N           2.0434   43.5723   13.4228 N.ar    1  UNL1       -0.2179
     33 N           0.6410   41.8510   12.6476 N.ar    1  UNL1       -0.2179
@<TRIPOS>BOND
     1    18    19    1
     2    19    23   ar
     3    20    22   ar
     4    20    16    1
     5    17     8    1
     6     8    14   am
     7     9    14    1
     8     9    10    1
     9    10    11    1
    10    11    12    1
    11    12    13    1
    12    12     1    1
    13    13    14    1
    14     1     7   ar
    15     2     3   ar
    16     3    24    1
    17    26    33   ar
    18    27    32   ar
    19    28    27    1
    20    29    30   ar
    21    31    30    1
    22     4     6   ar
    23     5     4    1
    24    21    23   ar
    25    24    26    1
    26    19    22   ar
    27    20    21   ar
    28    16    17    2
    29     8    15    2
    30     1     2   ar
    31     3     6   ar
    32    26    32   ar
    33    27    29   ar
    34    30    33   ar
    35     4     7   ar
    36    24    25    1
@<TRIPOS>MOLECULE
Molport-047-071-689 PubChem-132767284
 33 36 0 0 0
SMALL
GASTEIGER

@<TRIPOS>ATOM
      1 C           6.7404   41.2938   11.0197 C.ar    1  UNL1        0.0644
      2 C           5.8006   41.9879   10.2579 C.ar    1  UNL1        0.0492
      3 C           4.4496   41.6837   10.4220 C.ar    1  UNL1        0.1368
      4 C           5.0076   40.0568   12.0494 C.ar    1  UNL1        0.1406
      5 C           4.5774   39.0142   13.0166 C.3     1  UNL1        0.0737
      6 N           4.0808   40.7245   11.3144 N.ar    1  UNL1       -0.2159
      7 N           6.3272   40.3420   11.9006 N.ar    1  UNL1       -0.2348
      8 C          10.6775   41.3751    7.9654 C.2     1  UNL1        0.2492
      9 C          10.7759   42.3689   10.2889 C.3     1  UNL1        0.0937
     10 C           9.9355   43.4721   10.9366 C.3     1  UNL1        0.0220
     11 C           8.4656   43.0807   11.1504 C.3     1  UNL1        0.0094
     12 C           8.1915   41.6046   10.8596 C.3     1  UNL1        0.0603
     13 C           8.6697   41.2408    9.4528 C.3     1  UNL1        0.0996
     14 N          10.0319   41.7250    9.2047 N.am    1  UNL1       -0.2757
     15 O          10.2414   40.4024    7.2936 O.2     1  UNL1       -0.2699
     16 C          13.0952   41.7622    7.6208 C.2     1  UNL1        0.0243
     17 C          11.8298   42.1176    7.4227 C.2     1  UNL1        0.0595
     18 C          17.7720   43.3730    7.2035 C.3     1  UNL1        0.0594
     19 C          16.3259   43.2487    6.8840 C.ar    1  UNL1        0.0886
     20 C          14.2105   42.5299    7.0610 C.ar    1  UNL1        0.0881
     21 C          14.0321   43.3868    5.9754 C.ar    1  UNL1        0.0556
     22 N          15.4760   42.4540    7.5619 N.ar    1  UNL1       -0.2427
     23 S          15.5405   44.0647    5.6511 S.2     1  UNL1       -0.0702
     24 N           3.4762   42.3909    9.6443 N.pl3   1  UNL1       -0.2679
     25 H           2.5389   42.1046    9.7374 H       1  UNL1        0.1565
     26 C           3.7358   43.4748    8.7441 C.ar    1  UNL1        0.2211
     27 C           3.0092   45.3922    7.5600 C.ar    1  UNL1        0.0634
     28 C           1.9270   46.3505    7.2159 C.3     1  UNL1        0.0522
     29 C           4.2791   45.5463    7.0075 C.ar    1  UNL1        0.0296
     30 C           5.2668   44.6268    7.3552 C.ar    1  UNL1        0.0634
     31 C           6.6344   44.7553    6.7883 C.3     1  UNL1        0.0522
     32 N           2.7606   44.3653    8.4138 N.ar    1  UNL1       -0.2179
     33 N           4.9796   43.6127    8.2128 N.ar    1  UNL1       -0.2179
@<TRIPOS>BOND
     1    18    19    1
     2    19    23   ar
     3    20    22   ar
     4    20    16    1
     5    17     8    1
     6     8    14   am
     7     9    14    1
     8     9    10    1
     9    10    11    1
    10    11    12    1
    11    12    13    1
    12    12     1    1
    13    13    14    1
    14     1     7   ar
    15     2     3   ar
    16     3    24    1
    17    26    33   ar
    18    27    32   ar
    19    28    27    1
    20    29    30   ar
    21    31    30    1
    22     4     6   ar
    23     5     4    1
    24    21    23   ar
    25    24    26    1
    26    19    22   ar
    27    20    21   ar
    28    16    17    2
    29     8    15    2
    30     1     2   ar
    31     3     6   ar
    32    26    32   ar
    33    27    29   ar
    34    30    33   ar
    35     4     7   ar
    36    24    25    1
@<TRIPOS>MOLECULE
Molport-047-071-689 PubChem-132767284
 33 36 0 0 0
SMALL
GASTEIGER

@<TRIPOS>ATOM
      1 C          12.7485   40.0692   10.3146 C.ar    1  UNL1        0.0644
      2 C          13.8996   40.6539    9.7869 C.ar    1  UNL1        0.0492
      3 C          15.0627   39.8886    9.7072 C.ar    1  UNL1        0.1368
      4 C          13.9203   38.0433   10.6539 C.ar    1  UNL1        0.1406
      5 C          13.9334   36.6330   11.1216 C.3     1  UNL1        0.0737
      6 N          15.0492   38.5991   10.1422 N.ar    1  UNL1       -0.2159
      7 N          12.7799   38.7761   10.7380 N.ar    1  UNL1       -0.2348
      8 C           8.2213   40.9664    8.4343 C.2     1  UNL1        0.2492
      9 C           9.0074   42.0463   10.5818 C.3     1  UNL1        0.0937
     10 C           9.4866   41.4204   11.8939 C.3     1  UNL1        0.0220
     11 C          10.8201   40.6689   11.7665 C.3     1  UNL1        0.0094
     12 C          11.4929   40.8710   10.4082 C.3     1  UNL1        0.0603
     13 C          10.5313   40.5025    9.2770 C.3     1  UNL1        0.0996
     14 N           9.2152   41.1223    9.4652 N.am    1  UNL1       -0.2757
     15 O           8.5805   40.6324    7.2737 O.2     1  UNL1       -0.2699
     16 C           6.2428   41.2879    9.8821 C.2     1  UNL1        0.0243
     17 C           6.7796   41.1628    8.6727 C.2     1  UNL1        0.0595
     18 C           2.0700   42.3649   12.3456 C.3     1  UNL1        0.0594
     19 C           2.9271   41.9717   11.1970 C.ar    1  UNL1        0.0886
     20 C           4.8032   41.4830   10.0726 C.ar    1  UNL1        0.0881
     21 C           3.8985   41.2935    9.0284 C.ar    1  UNL1        0.0556
     22 N           4.2670   41.8570   11.2687 N.ar    1  UNL1       -0.2427
     23 S           2.3693   41.6152    9.6593 S.2     1  UNL1       -0.0702
     24 N          16.2505   40.4797    9.1666 N.pl3   1  UNL1       -0.2679
     25 H          17.1019   40.0253    9.3613 H       1  UNL1        0.1565
     26 C          16.3184   41.6685    8.3701 C.ar    1  UNL1        0.2211
     27 C          17.5015   43.5673    7.5945 C.ar    1  UNL1        0.0634
     28 C          18.7373   44.3925    7.5912 C.3     1  UNL1        0.0522
     29 C          16.4060   43.9487    6.8224 C.ar    1  UNL1        0.0296
     30 C          15.2657   43.1482    6.8526 C.ar    1  UNL1        0.0634
     31 C          14.0757   43.5193    6.0438 C.3     1  UNL1        0.0522
     32 N          17.4395   42.4406    8.3507 N.ar    1  UNL1       -0.2179
     33 N          15.2419   42.0282    7.6217 N.ar    1  UNL1       -0.2179
@<TRIPOS>BOND
     1    18    19    1
     2    19    23   ar
     3    20    22   ar
     4    20    16    1
     5    17     8    1
     6     8    14   am
     7     9    14    1
     8     9    10    1
     9    10    11    1
    10    11    12    1
    11    12    13    1
    12    12     1    1
    13    13    14    1
    14     1     7   ar
    15     2     3   ar
    16     3    24    1
    17    26    33   ar
    18    27    32   ar
    19    28    27    1
    20    29    30   ar
    21    31    30    1
    22     4     6   ar
    23     5     4    1
    24    21    23   ar
    25    24    26    1
    26    19    22   ar
    27    20    21   ar
    28    16    17    2
    29     8    15    2
    30     1     2   ar
    31     3     6   ar
    32    26    32   ar
    33    27    29   ar
    34    30    33   ar
    35     4     7   ar
    36    24    25    1
