@<TRIPOS>MOLECULE
MolPort-006-503-558 MCULE-7225537310 PubChem-8081718 ZINC000006776333 ZINC06776333
 31 34 0 0 0
SMALL
GASTEIGER

@<TRIPOS>ATOM
      1 C          12.0584   41.7871    8.3733 C.ar    1  UNL1        0.0847
      2 C          11.2585   41.0035    7.5296 C.ar    1  UNL1        0.0205
      3 C           9.9022   40.8191    7.8085 C.ar    1  UNL1        0.0162
      4 C           9.3246   41.4089    8.9423 C.ar    1  UNL1        0.0506
      5 C          10.1229   42.1773    9.7943 C.ar    1  UNL1        0.0162
      6 C          11.4806   42.3584    9.5176 C.ar    1  UNL1        0.0205
      7 C          15.2479   42.5962    7.1379 C.ar    1  UNL1        0.3384
      8 C          14.5165   41.2201    8.5420 C.ar    1  UNL1        0.1706
      9 N          15.6677   41.6060    7.9543 N.ar    1  UNL1       -0.1738
     10 N          13.4611   41.9391    8.0870 N.ar    1  UNL1       -0.2080
     11 N          13.9226   42.8109    7.2062 N.ar    1  UNL1       -0.1077
     12 C          14.4821   40.1993    9.6048 C.ar    1  UNL1        0.0634
     13 C          13.2735   39.5437    9.8775 C.ar    1  UNL1        0.0053
     14 C          13.2148   38.5490   10.8570 C.ar    1  UNL1        0.0002
     15 C          14.3687   38.1927   11.5614 C.ar    1  UNL1        0.0023
     16 C          15.5830   38.8237   11.2791 C.ar    1  UNL1        0.0297
     17 C          15.6468   39.8184   10.2988 C.ar    1  UNL1        0.1430
     18 F          16.8458   40.3860   10.0127 F       1  UNL1       -0.2041
     19 C          16.9219   44.3643    6.8202 C.3     1  UNL1        0.2559
     20 O          16.0918   43.3338    6.3088 O.3     1  UNL1       -0.4416
     21 C           6.9349   42.2896    9.2385 C.2     1  UNL1        0.2496
     22 O           7.2208   43.4530    8.8431 O.2     1  UNL1       -0.2698
     23 N           7.9325   41.2578    9.2517 N.am    1  UNL1       -0.2804
     24 H           7.6301   40.3539    9.4984 H       1  UNL1        0.1552
     25 C           5.5630   41.9842    9.6800 C.ar    1  UNL1        0.0559
     26 C           4.4680   42.6535    9.1122 C.ar    1  UNL1        0.0047
     27 C           3.1661   42.3609    9.5294 C.ar    1  UNL1        0.0025
     28 C           2.9497   41.3971   10.5179 C.ar    1  UNL1        0.0296
     29 C           4.0349   40.7266   11.0905 C.ar    1  UNL1        0.1403
     30 C           5.3368   41.0201   10.6744 C.ar    1  UNL1        0.0342
     31 F           3.8263   39.8027   12.0595 F       1  UNL1       -0.2042
@<TRIPOS>BOND
     1    19    20    1
     2     7    20    1
     3     7     9   ar
     4     8    10   ar
     5     8    12    1
     6     2     3   ar
     7     4     5   ar
     8     4    23    1
     9     6     1   ar
    10    21    25    1
    11    26    27   ar
    12    28    29   ar
    13    29    31    1
    14    30    25   ar
    15    13    14   ar
    16    15    16   ar
    17    17    18    1
    18    17    12   ar
    19    10    11   ar
    20    10     1    1
    21    23    21   am
    22     7    11   ar
    23     8     9   ar
    24     1     2   ar
    25     3     4   ar
    26     5     6   ar
    27    21    22    2
    28    25    26   ar
    29    27    28   ar
    30    29    30   ar
    31    12    13   ar
    32    14    15   ar
    33    16    17   ar
    34    23    24    1
@<TRIPOS>MOLECULE
MolPort-006-503-558 MCULE-7225537310 PubChem-8081718 ZINC000006776333 ZINC06776333
 31 34 0 0 0
SMALL
GASTEIGER

@<TRIPOS>ATOM
      1 C          10.6002   40.8678    9.2699 C.ar    1  UNL1        0.0847
      2 C          10.2113   41.7431   10.2937 C.ar    1  UNL1        0.0205
      3 C           8.8600   42.0188   10.5157 C.ar    1  UNL1        0.0162
      4 C           7.8743   41.4297    9.7103 C.ar    1  UNL1        0.0506
      5 C           8.2596   40.5694    8.6784 C.ar    1  UNL1        0.0162
      6 C           9.6115   40.2968    8.4537 C.ar    1  UNL1        0.0205
      7 C          14.0879   40.4522    9.4020 C.ar    1  UNL1        0.3384
      8 C          12.6610   40.4560    7.8644 C.ar    1  UNL1        0.1706
      9 N          13.9919   40.3528    8.0588 N.ar    1  UNL1       -0.1738
     10 N          11.9991   40.6211    9.0359 N.ar    1  UNL1       -0.2080
     11 N          12.8977   40.6127   10.0061 N.ar    1  UNL1       -0.1077
     12 C          12.0495   40.3111    6.5310 C.ar    1  UNL1        0.0634
     13 C          11.6570   39.0367    6.0990 C.ar    1  UNL1        0.0053
     14 C          11.0458   38.8702    4.8536 C.ar    1  UNL1        0.0002
     15 C          10.8098   39.9801    4.0368 C.ar    1  UNL1        0.0023
     16 C          11.1755   41.2572    4.4698 C.ar    1  UNL1        0.0297
     17 C          11.7859   41.4288    5.7158 C.ar    1  UNL1        0.1430
     18 F          12.0925   42.6834    6.1324 F       1  UNL1       -0.2041
     19 C          16.0480   39.1922   10.1764 C.3     1  UNL1        0.2559
     20 O          15.2903   40.3894   10.1046 O.3     1  UNL1       -0.4416
     21 C           5.6905   41.2465   11.0413 C.2     1  UNL1        0.2496
     22 O           6.2336   40.6668   12.0213 O.2     1  UNL1       -0.2698
     23 N           6.4766   41.6738    9.9191 N.am    1  UNL1       -0.2804
     24 H           6.0085   42.1868    9.2213 H       1  UNL1        0.1552
     25 C           4.2388   41.4971   11.0533 C.ar    1  UNL1        0.0559
     26 C           3.4943   41.4197    9.8662 C.ar    1  UNL1        0.0047
     27 C           2.1162   41.6545    9.8788 C.ar    1  UNL1        0.0025
     28 C           1.4724   41.9690   11.0787 C.ar    1  UNL1        0.0296
     29 C           2.2065   42.0502   12.2659 C.ar    1  UNL1        0.1403
     30 C           3.5848   41.8167   12.2532 C.ar    1  UNL1        0.0342
     31 F           1.5851   42.3697   13.4269 F       1  UNL1       -0.2042
@<TRIPOS>BOND
     1    19    20    1
     2     7    20    1
     3     7     9   ar
     4     8    10   ar
     5     8    12    1
     6     2     3   ar
     7     4     5   ar
     8     4    23    1
     9     6     1   ar
    10    21    25    1
    11    26    27   ar
    12    28    29   ar
    13    29    31    1
    14    30    25   ar
    15    13    14   ar
    16    15    16   ar
    17    17    18    1
    18    17    12   ar
    19    10    11   ar
    20    10     1    1
    21    23    21   am
    22     7    11   ar
    23     8     9   ar
    24     1     2   ar
    25     3     4   ar
    26     5     6   ar
    27    21    22    2
    28    25    26   ar
    29    27    28   ar
    30    29    30   ar
    31    12    13   ar
    32    14    15   ar
    33    16    17   ar
    34    23    24    1
@<TRIPOS>MOLECULE
MolPort-006-503-558 MCULE-7225537310 PubChem-8081718 ZINC000006776333 ZINC06776333
 31 34 0 0 0
SMALL
GASTEIGER

@<TRIPOS>ATOM
      1 C          13.0620   40.8385    9.4713 C.ar    1  UNL1        0.0847
      2 C          12.5111   41.5806    8.4172 C.ar    1  UNL1        0.0205
      3 C          11.1450   41.8716    8.3929 C.ar    1  UNL1        0.0162
      4 C          10.3046   41.4169    9.4196 C.ar    1  UNL1        0.0506
      5 C          10.8480   40.6629   10.4636 C.ar    1  UNL1        0.0162
      6 C          12.2137   40.3684   10.4858 C.ar    1  UNL1        0.0205
      7 C          16.3171   39.6261   10.0088 C.ar    1  UNL1        0.3384
      8 C          15.4868   41.1457    8.8248 C.ar    1  UNL1        0.1706
      9 N          16.6789   40.6074    9.1547 N.ar    1  UNL1       -0.1738
     10 N          14.4663   40.5213    9.4623 N.ar    1  UNL1       -0.2080
     11 N          14.9887   39.5593   10.2043 N.ar    1  UNL1       -0.1077
     12 C          15.3613   42.2193    7.8226 C.ar    1  UNL1        0.0634
     13 C          14.3642   42.1198    6.8424 C.ar    1  UNL1        0.0053
     14 C          14.1988   43.1357    5.8974 C.ar    1  UNL1        0.0002
     15 C          15.0209   44.2659    5.9351 C.ar    1  UNL1        0.0023
     16 C          16.0012   44.3849    6.9236 C.ar    1  UNL1        0.0297
     17 C          16.1693   43.3716    7.8720 C.ar    1  UNL1        0.1430
     18 F          17.0990   43.5299    8.8479 F       1  UNL1       -0.2041
     19 C          18.6196   38.9376   10.5121 C.3     1  UNL1        0.2559
     20 O          17.2170   38.7590   10.6266 O.3     1  UNL1       -0.4416
     21 C           8.0512   41.7560   10.5947 C.2     1  UNL1        0.2496
     22 O           8.5341   41.6168   11.7519 O.2     1  UNL1       -0.2698
     23 N           8.9012   41.7109    9.4391 N.am    1  UNL1       -0.2804
     24 H           8.4774   41.9014    8.5711 H       1  UNL1        0.1552
     25 C           6.6043   41.9777   10.4284 C.ar    1  UNL1        0.0559
     26 C           6.1191   42.7163    9.3383 C.ar    1  UNL1        0.0047
     27 C           4.7457   42.9236    9.1793 C.ar    1  UNL1        0.0025
     28 C           3.8472   42.3942   10.1097 C.ar    1  UNL1        0.0296
     29 C           4.3219   41.6585   11.1999 C.ar    1  UNL1        0.1403
     30 C           5.6953   41.4523   11.3597 C.ar    1  UNL1        0.0342
     31 F           3.4520   41.1577   12.1102 F       1  UNL1       -0.2042
@<TRIPOS>BOND
     1    19    20    1
     2     7    20    1
     3     7     9   ar
     4     8    10   ar
     5     8    12    1
     6     2     3   ar
     7     4     5   ar
     8     4    23    1
     9     6     1   ar
    10    21    25    1
    11    26    27   ar
    12    28    29   ar
    13    29    31    1
    14    30    25   ar
    15    13    14   ar
    16    15    16   ar
    17    17    18    1
    18    17    12   ar
    19    10    11   ar
    20    10     1    1
    21    23    21   am
    22     7    11   ar
    23     8     9   ar
    24     1     2   ar
    25     3     4   ar
    26     5     6   ar
    27    21    22    2
    28    25    26   ar
    29    27    28   ar
    30    29    30   ar
    31    12    13   ar
    32    14    15   ar
    33    16    17   ar
    34    23    24    1
@<TRIPOS>MOLECULE
MolPort-006-503-558 MCULE-7225537310 PubChem-8081718 ZINC000006776333 ZINC06776333
 31 34 0 0 0
SMALL
GASTEIGER

@<TRIPOS>ATOM
      1 C           9.0599   41.5318    9.9064 C.ar    1  UNL1        0.0847
      2 C           7.8537   41.3875   10.6063 C.ar    1  UNL1        0.0205
      3 C           6.6661   41.9089   10.0876 C.ar    1  UNL1        0.0162
      4 C           6.6668   42.5919    8.8626 C.ar    1  UNL1        0.0506
      5 C           7.8704   42.7516    8.1702 C.ar    1  UNL1        0.0162
      6 C           9.0590   42.2336    8.6911 C.ar    1  UNL1        0.0205
      7 C          11.7474   40.4972   11.9216 C.ar    1  UNL1        0.3384
      8 C          11.4252   40.6403    9.8538 C.ar    1  UNL1        0.1706
      9 N          12.3829   40.3112   10.7448 N.ar    1  UNL1       -0.1738
     10 N          10.2788   41.0157   10.4725 N.ar    1  UNL1       -0.2080
     11 N          10.4795   40.9199   11.7761 N.ar    1  UNL1       -0.1077
     12 C          11.6265   40.5049    8.3998 C.ar    1  UNL1        0.0634
     13 C          10.9783   39.4653    7.7187 C.ar    1  UNL1        0.0053
     14 C          11.1233   39.3286    6.3357 C.ar    1  UNL1        0.0002
     15 C          11.9070   40.2399    5.6216 C.ar    1  UNL1        0.0023
     16 C          12.5371   41.2936    6.2888 C.ar    1  UNL1        0.0297
     17 C          12.3935   41.4352    7.6722 C.ar    1  UNL1        0.1430
     18 F          12.9797   42.4912    8.2911 F       1  UNL1       -0.2041
     19 C          11.6995   40.6808   14.3697 C.3     1  UNL1        0.2559
     20 O          12.3311   40.2712   13.1673 O.3     1  UNL1       -0.4416
     21 C           5.1520   44.5116    8.0916 C.2     1  UNL1        0.2496
     22 O           6.0060   45.4046    8.3461 O.2     1  UNL1       -0.2698
     23 N           5.4653   43.1249    8.2891 N.am    1  UNL1       -0.2804
     24 H           4.7859   42.4730    8.0014 H       1  UNL1        0.1552
     25 C           3.8257   44.8941    7.5769 C.ar    1  UNL1        0.0559
     26 C           3.4175   44.4922    6.2958 C.ar    1  UNL1        0.0047
     27 C           2.1575   44.8529    5.8091 C.ar    1  UNL1        0.0025
     28 C           1.2965   45.6186    6.6000 C.ar    1  UNL1        0.0296
     29 C           1.6956   46.0250    7.8770 C.ar    1  UNL1        0.1403
     30 C           2.9560   45.6656    8.3631 C.ar    1  UNL1        0.0342
     31 F           0.8668   46.7799    8.6381 F       1  UNL1       -0.2042
@<TRIPOS>BOND
     1    19    20    1
     2     7    20    1
     3     7     9   ar
     4     8    10   ar
     5     8    12    1
     6     2     3   ar
     7     4     5   ar
     8     4    23    1
     9     6     1   ar
    10    21    25    1
    11    26    27   ar
    12    28    29   ar
    13    29    31    1
    14    30    25   ar
    15    13    14   ar
    16    15    16   ar
    17    17    18    1
    18    17    12   ar
    19    10    11   ar
    20    10     1    1
    21    23    21   am
    22     7    11   ar
    23     8     9   ar
    24     1     2   ar
    25     3     4   ar
    26     5     6   ar
    27    21    22    2
    28    25    26   ar
    29    27    28   ar
    30    29    30   ar
    31    12    13   ar
    32    14    15   ar
    33    16    17   ar
    34    23    24    1
@<TRIPOS>MOLECULE
MolPort-006-503-558 MCULE-7225537310 PubChem-8081718 ZINC000006776333 ZINC06776333
 31 34 0 0 0
SMALL
GASTEIGER

@<TRIPOS>ATOM
      1 C          13.1449   40.7419    9.5298 C.ar    1  UNL1        0.0847
      2 C          12.3717   40.2475   10.5897 C.ar    1  UNL1        0.0205
      3 C          10.9990   40.5006   10.6443 C.ar    1  UNL1        0.0162
      4 C          10.3775   41.2609    9.6429 C.ar    1  UNL1        0.0506
      5 C          11.1484   41.7688    8.5935 C.ar    1  UNL1        0.0162
      6 C          12.5222   41.5191    8.5410 C.ar    1  UNL1        0.0205
      7 C          16.4651   39.7104   10.0456 C.ar    1  UNL1        0.3384
      8 C          15.5421   41.1621    8.8453 C.ar    1  UNL1        0.1706
      9 N          16.7646   40.6927    9.1690 N.ar    1  UNL1       -0.1738
     10 N          14.5635   40.4978    9.5078 N.ar    1  UNL1       -0.2080
     11 N          15.1445   39.5784   10.2601 N.ar    1  UNL1       -0.1077
     12 C          15.3484   42.2087    7.8255 C.ar    1  UNL1        0.0634
     13 C          14.3157   42.0612    6.8891 C.ar    1  UNL1        0.0053
     14 C          14.0860   43.0504    5.9294 C.ar    1  UNL1        0.0002
     15 C          14.8790   44.2016    5.9084 C.ar    1  UNL1        0.0023
     16 C          15.8947   44.3683    6.8533 C.ar    1  UNL1        0.0297
     17 C          16.1272   43.3819    7.8164 C.ar    1  UNL1        0.1430
     18 F          17.0909   43.5862    8.7498 F       1  UNL1       -0.2041
     19 C          18.7916   38.9773   10.3264 C.3     1  UNL1        0.2559
     20 O          17.4166   38.9029   10.6670 O.3     1  UNL1       -0.4416
     21 C           8.1812   42.0250    8.5629 C.2     1  UNL1        0.2496
     22 O           8.6966   42.1894    7.4233 O.2     1  UNL1       -0.2698
     23 N           8.9682   41.5262    9.6546 N.am    1  UNL1       -0.2804
     24 H           8.4919   41.3480   10.4976 H       1  UNL1        0.1552
     25 C           6.7567   42.3369    8.7728 C.ar    1  UNL1        0.0559
     26 C           6.2746   43.6371    8.5573 C.ar    1  UNL1        0.0047
     27 C           4.9221   43.9317    8.7536 C.ar    1  UNL1        0.0025
     28 C           4.0418   42.9283    9.1673 C.ar    1  UNL1        0.0296
     29 C           4.5138   41.6304    9.3863 C.ar    1  UNL1        0.1403
     30 C           5.8664   41.3360    9.1914 C.ar    1  UNL1        0.0342
     31 F           3.6633   40.6608    9.8018 F       1  UNL1       -0.2042
@<TRIPOS>BOND
     1    19    20    1
     2     7    20    1
     3     7     9   ar
     4     8    10   ar
     5     8    12    1
     6     2     3   ar
     7     4     5   ar
     8     4    23    1
     9     6     1   ar
    10    21    25    1
    11    26    27   ar
    12    28    29   ar
    13    29    31    1
    14    30    25   ar
    15    13    14   ar
    16    15    16   ar
    17    17    18    1
    18    17    12   ar
    19    10    11   ar
    20    10     1    1
    21    23    21   am
    22     7    11   ar
    23     8     9   ar
    24     1     2   ar
    25     3     4   ar
    26     5     6   ar
    27    21    22    2
    28    25    26   ar
    29    27    28   ar
    30    29    30   ar
    31    12    13   ar
    32    14    15   ar
    33    16    17   ar
    34    23    24    1
@<TRIPOS>MOLECULE
MolPort-006-503-558 MCULE-7225537310 PubChem-8081718 ZINC000006776333 ZINC06776333
 31 34 0 0 0
SMALL
GASTEIGER

@<TRIPOS>ATOM
      1 C          12.1663   42.0004    8.2867 C.ar    1  UNL1        0.0847
      2 C          11.5991   42.4627    9.4826 C.ar    1  UNL1        0.0205
      3 C          10.2119   42.5469    9.6234 C.ar    1  UNL1        0.0162
      4 C           9.3679   42.1779    8.5658 C.ar    1  UNL1        0.0506
      5 C           9.9305   41.7319    7.3666 C.ar    1  UNL1        0.0162
      6 C          11.3183   41.6516    7.2243 C.ar    1  UNL1        0.0205
      7 C          15.5619   42.4413    7.4932 C.ar    1  UNL1        0.3384
      8 C          14.4691   40.9875    8.5384 C.ar    1  UNL1        0.1706
      9 N          15.7254   41.2628    8.1317 N.ar    1  UNL1       -0.1738
     10 N          13.5985   41.9511    8.1492 N.ar    1  UNL1       -0.2080
     11 N          14.2880   42.8709    7.4954 N.ar    1  UNL1       -0.1077
     12 C          14.1546   39.8155    9.3753 C.ar    1  UNL1        0.0634
     13 C          14.5359   39.8226   10.7241 C.ar    1  UNL1        0.0053
     14 C          14.2248   38.7406   11.5517 C.ar    1  UNL1        0.0002
     15 C          13.5171   37.6493   11.0391 C.ar    1  UNL1        0.0023
     16 C          13.1116   37.6445    9.7020 C.ar    1  UNL1        0.0297
     17 C          13.4193   38.7256    8.8706 C.ar    1  UNL1        0.1430
     18 F          12.9774   38.7170    7.5875 F       1  UNL1       -0.2041
     19 C          17.8405   43.3542    7.5519 C.3     1  UNL1        0.2559
     20 O          16.5994   43.1544    6.8945 O.3     1  UNL1       -0.4416
     21 C           7.1595   41.9246    9.8437 C.2     1  UNL1        0.2496
     22 O           7.7230   41.6524   10.9391 O.2     1  UNL1       -0.2698
     23 N           7.9393   42.2329    8.6789 N.am    1  UNL1       -0.2804
     24 H           7.4428   42.5106    7.8754 H       1  UNL1        0.1552
     25 C           5.6886   41.9371    9.7616 C.ar    1  UNL1        0.0559
     26 C           4.9396   40.8620   10.2641 C.ar    1  UNL1        0.0047
     27 C           3.5436   40.8759   10.1887 C.ar    1  UNL1        0.0025
     28 C           2.8864   41.9650    9.6099 C.ar    1  UNL1        0.0296
     29 C           3.6248   43.0397    9.1050 C.ar    1  UNL1        0.1403
     30 C           5.0207   43.0252    9.1790 C.ar    1  UNL1        0.0342
     31 F           2.9885   44.0890    8.5303 F       1  UNL1       -0.2042
@<TRIPOS>BOND
     1    19    20    1
     2     7    20    1
     3     7     9   ar
     4     8    10   ar
     5     8    12    1
     6     2     3   ar
     7     4     5   ar
     8     4    23    1
     9     6     1   ar
    10    21    25    1
    11    26    27   ar
    12    28    29   ar
    13    29    31    1
    14    30    25   ar
    15    13    14   ar
    16    15    16   ar
    17    17    18    1
    18    17    12   ar
    19    10    11   ar
    20    10     1    1
    21    23    21   am
    22     7    11   ar
    23     8     9   ar
    24     1     2   ar
    25     3     4   ar
    26     5     6   ar
    27    21    22    2
    28    25    26   ar
    29    27    28   ar
    30    29    30   ar
    31    12    13   ar
    32    14    15   ar
    33    16    17   ar
    34    23    24    1
@<TRIPOS>MOLECULE
MolPort-006-503-558 MCULE-7225537310 PubChem-8081718 ZINC000006776333 ZINC06776333
 31 34 0 0 0
SMALL
GASTEIGER

@<TRIPOS>ATOM
      1 C           7.0752   42.8747    8.5856 C.ar    1  UNL1        0.0847
      2 C           7.3933   41.6258    8.0335 C.ar    1  UNL1        0.0205
      3 C           8.6900   41.1160    8.1330 C.ar    1  UNL1        0.0162
      4 C           9.6938   41.8519    8.7797 C.ar    1  UNL1        0.0506
      5 C           9.3838   43.1045    9.3169 C.ar    1  UNL1        0.0162
      6 C           8.0877   43.6162    9.2138 C.ar    1  UNL1        0.0205
      7 C           4.1492   44.6844    7.8663 C.ar    1  UNL1        0.3384
      8 C           4.6053   43.0481    9.0971 C.ar    1  UNL1        0.1706
      9 N           3.5747   43.8501    8.7591 N.ar    1  UNL1       -0.1738
     10 N           5.7413   43.3975    8.4449 N.ar    1  UNL1       -0.2080
     11 N           5.4528   44.4252    7.6642 N.ar    1  UNL1       -0.1077
     12 C           4.4388   41.8955   10.0008 C.ar    1  UNL1        0.0634
     13 C           5.3394   41.7294   11.0620 C.ar    1  UNL1        0.0053
     14 C           5.1902   40.6650   11.9549 C.ar    1  UNL1        0.0002
     15 C           4.1300   39.7668   11.8009 C.ar    1  UNL1        0.0023
     16 C           3.2133   39.9388   10.7604 C.ar    1  UNL1        0.0297
     17 C           3.3578   41.0033    9.8656 C.ar    1  UNL1        0.1430
     18 F           2.4305   41.1743    8.8896 F       1  UNL1       -0.2041
     19 C           2.0637   45.8554    7.3108 C.3     1  UNL1        0.2559
     20 O           3.4710   45.7094    7.2083 O.3     1  UNL1       -0.4416
     21 C          11.5878   40.7005   10.0683 C.2     1  UNL1        0.2496
     22 O          10.8625   40.4263   11.0635 O.2     1  UNL1       -0.2698
     23 N          11.0315   41.3541    8.9180 N.am    1  UNL1       -0.2804
     24 H          11.6294   41.4727    8.1449 H       1  UNL1        0.1552
     25 C          13.0155   40.3372   10.0822 C.ar    1  UNL1        0.0559
     26 C          13.8692   40.7708    9.0563 C.ar    1  UNL1        0.0047
     27 C          15.2246   40.4282    9.0717 C.ar    1  UNL1        0.0025
     28 C          15.7361   39.6490   10.1129 C.ar    1  UNL1        0.0296
     29 C          14.8924   39.2110   11.1383 C.ar    1  UNL1        0.1403
     30 C          13.5368   39.5523   11.1223 C.ar    1  UNL1        0.0342
     31 F          15.3850   38.4431   12.1401 F       1  UNL1       -0.2042
@<TRIPOS>BOND
     1    19    20    1
     2     7    20    1
     3     7     9   ar
     4     8    10   ar
     5     8    12    1
     6     2     3   ar
     7     4     5   ar
     8     4    23    1
     9     6     1   ar
    10    21    25    1
    11    26    27   ar
    12    28    29   ar
    13    29    31    1
    14    30    25   ar
    15    13    14   ar
    16    15    16   ar
    17    17    18    1
    18    17    12   ar
    19    10    11   ar
    20    10     1    1
    21    23    21   am
    22     7    11   ar
    23     8     9   ar
    24     1     2   ar
    25     3     4   ar
    26     5     6   ar
    27    21    22    2
    28    25    26   ar
    29    27    28   ar
    30    29    30   ar
    31    12    13   ar
    32    14    15   ar
    33    16    17   ar
    34    23    24    1
@<TRIPOS>MOLECULE
MolPort-006-503-558 MCULE-7225537310 PubChem-8081718 ZINC000006776333 ZINC06776333
 31 34 0 0 0
SMALL
GASTEIGER

@<TRIPOS>ATOM
      1 C           9.7476   41.4863    6.9986 C.ar    1  UNL1        0.0847
      2 C          10.4175   41.6158    5.7738 C.ar    1  UNL1        0.0205
      3 C          11.7324   42.0852    5.7310 C.ar    1  UNL1        0.0162
      4 C          12.3972   42.4418    6.9134 C.ar    1  UNL1        0.0506
      5 C          11.7266   42.3292    8.1346 C.ar    1  UNL1        0.0162
      6 C          10.4098   41.8635    8.1771 C.ar    1  UNL1        0.0205
      7 C           6.3547   40.8187    7.6287 C.ar    1  UNL1        0.3384
      8 C           7.8092   39.9930    6.3625 C.ar    1  UNL1        0.1706
      9 N           6.5225   39.8242    6.7309 N.ar    1  UNL1       -0.1738
     10 N           8.3819   41.0312    7.0197 N.ar    1  UNL1       -0.2080
     11 N           7.4637   41.5559    7.8136 N.ar    1  UNL1       -0.1077
     12 C           8.4366   39.1771    5.3073 C.ar    1  UNL1        0.0634
     13 C           8.4514   39.6627    3.9925 C.ar    1  UNL1        0.0053
     14 C           9.0659   38.9280    2.9751 C.ar    1  UNL1        0.0002
     15 C           9.6829   37.7082    3.2686 C.ar    1  UNL1        0.0023
     16 C           9.6942   37.2282    4.5808 C.ar    1  UNL1        0.0297
     17 C           9.0820   37.9607    5.6022 C.ar    1  UNL1        0.1430
     18 F           9.1437   37.4949    6.8753 F       1  UNL1       -0.2041
     19 C           5.0835   41.0701    9.7143 C.3     1  UNL1        0.2559
     20 O           5.1581   41.0716    8.2978 O.3     1  UNL1       -0.4416
     21 C          14.8759   42.2849    7.5500 C.2     1  UNL1        0.2496
     22 O          14.7500   41.1647    8.1165 O.2     1  UNL1       -0.2698
     23 N          13.7527   42.9100    6.9116 N.am    1  UNL1       -0.2804
     24 H          13.9310   43.7455    6.4224 H       1  UNL1        0.1552
     25 C          16.1892   42.9523    7.5338 C.ar    1  UNL1        0.0559
     26 C          16.9227   43.1068    8.7202 C.ar    1  UNL1        0.0047
     27 C          18.1703   43.7374    8.7035 C.ar    1  UNL1        0.0025
     28 C          18.6935   44.2186    7.5003 C.ar    1  UNL1        0.0296
     29 C          17.9688   44.0706    6.3137 C.ar    1  UNL1        0.1403
     30 C          16.7206   43.4414    6.3304 C.ar    1  UNL1        0.0342
     31 F          18.4692   44.5503    5.1494 F       1  UNL1       -0.2042
@<TRIPOS>BOND
     1    19    20    1
     2     7    20    1
     3     7     9   ar
     4     8    10   ar
     5     8    12    1
     6     2     3   ar
     7     4     5   ar
     8     4    23    1
     9     6     1   ar
    10    21    25    1
    11    26    27   ar
    12    28    29   ar
    13    29    31    1
    14    30    25   ar
    15    13    14   ar
    16    15    16   ar
    17    17    18    1
    18    17    12   ar
    19    10    11   ar
    20    10     1    1
    21    23    21   am
    22     7    11   ar
    23     8     9   ar
    24     1     2   ar
    25     3     4   ar
    26     5     6   ar
    27    21    22    2
    28    25    26   ar
    29    27    28   ar
    30    29    30   ar
    31    12    13   ar
    32    14    15   ar
    33    16    17   ar
    34    23    24    1
@<TRIPOS>MOLECULE
MolPort-006-503-558 MCULE-7225537310 PubChem-8081718 ZINC000006776333 ZINC06776333
 31 34 0 0 0
SMALL
GASTEIGER

@<TRIPOS>ATOM
      1 C          13.0138   40.6618    9.7265 C.ar    1  UNL1        0.0847
      2 C          12.1687   40.2633   10.7718 C.ar    1  UNL1        0.0205
      3 C          10.8441   40.7042   10.8201 C.ar    1  UNL1        0.0162
      4 C          10.3446   41.5595    9.8271 C.ar    1  UNL1        0.0506
      5 C          11.1891   41.9716    8.7924 C.ar    1  UNL1        0.0162
      6 C          12.5153   41.5338    8.7463 C.ar    1  UNL1        0.0205
      7 C          16.1466   39.1509   10.2332 C.ar    1  UNL1        0.3384
      8 C          15.4600   40.7757    9.0979 C.ar    1  UNL1        0.1706
      9 N          16.5982   40.1241    9.4134 N.ar    1  UNL1       -0.1738
     10 N          14.3848   40.2228    9.7112 N.ar    1  UNL1       -0.2080
     11 N          14.8163   39.1947   10.4223 N.ar    1  UNL1       -0.1077
     12 C          15.4352   41.8886    8.1317 C.ar    1  UNL1        0.0634
     13 C          14.4538   41.8970    7.1309 C.ar    1  UNL1        0.0053
     14 C          14.3838   42.9535    6.2191 C.ar    1  UNL1        0.0002
     15 C          15.2867   44.0170    6.3109 C.ar    1  UNL1        0.0023
     16 C          16.2526   44.0290    7.3204 C.ar    1  UNL1        0.0297
     17 C          16.3254   42.9748    8.2358 C.ar    1  UNL1        0.1430
     18 F          17.2441   43.0302    9.2332 F       1  UNL1       -0.2041
     19 C          18.2911   37.9639   10.3787 C.3     1  UNL1        0.2559
     20 O          16.9632   38.1881   10.8245 O.3     1  UNL1       -0.4416
     21 C           7.9106   41.5216    9.0220 C.2     1  UNL1        0.2496
     22 O           8.0836   40.5257    8.2670 O.2     1  UNL1       -0.2698
     23 N           8.9859   42.0183    9.8324 N.am    1  UNL1       -0.2804
     24 H           8.7686   42.7487   10.4557 H       1  UNL1        0.1552
     25 C           6.5908   42.1735    9.0809 C.ar    1  UNL1        0.0559
     26 C           5.5608   41.6243    9.8599 C.ar    1  UNL1        0.0047
     27 C           4.3096   42.2453    9.9178 C.ar    1  UNL1        0.0025
     28 C           4.0789   43.4199    9.1967 C.ar    1  UNL1        0.0296
     29 C           5.0988   43.9733    8.4165 C.ar    1  UNL1        0.1403
     30 C           6.3496   43.3517    8.3573 C.ar    1  UNL1        0.0342
     31 F           4.8709   45.1040    7.7055 F       1  UNL1       -0.2042
@<TRIPOS>BOND
     1    19    20    1
     2     7    20    1
     3     7     9   ar
     4     8    10   ar
     5     8    12    1
     6     2     3   ar
     7     4     5   ar
     8     4    23    1
     9     6     1   ar
    10    21    25    1
    11    26    27   ar
    12    28    29   ar
    13    29    31    1
    14    30    25   ar
    15    13    14   ar
    16    15    16   ar
    17    17    18    1
    18    17    12   ar
    19    10    11   ar
    20    10     1    1
    21    23    21   am
    22     7    11   ar
    23     8     9   ar
    24     1     2   ar
    25     3     4   ar
    26     5     6   ar
    27    21    22    2
    28    25    26   ar
    29    27    28   ar
    30    29    30   ar
    31    12    13   ar
    32    14    15   ar
    33    16    17   ar
    34    23    24    1
@<TRIPOS>MOLECULE
MolPort-006-503-558 MCULE-7225537310 PubChem-8081718 ZINC000006776333 ZINC06776333
 31 34 0 0 0
SMALL
GASTEIGER

@<TRIPOS>ATOM
      1 C           9.2832   42.4993    8.6222 C.ar    1  UNL1        0.0847
      2 C           9.7828   41.6907    7.5915 C.ar    1  UNL1        0.0205
      3 C          11.1290   41.7599    7.2252 C.ar    1  UNL1        0.0162
      4 C          11.9972   42.6467    7.8786 C.ar    1  UNL1        0.0506
      5 C          11.4987   43.4659    8.8955 C.ar    1  UNL1        0.0162
      6 C          10.1512   43.3995    9.2593 C.ar    1  UNL1        0.0205
      7 C           5.7784   42.6834    8.8138 C.ar    1  UNL1        0.3384
      8 C           7.3014   42.1423   10.1510 C.ar    1  UNL1        0.1706
      9 N           5.9624   42.2957   10.0941 N.ar    1  UNL1       -0.1738
     10 N           7.8861   42.4368    8.9639 N.ar    1  UNL1       -0.2080
     11 N           6.9258   42.7722    8.1188 N.ar    1  UNL1       -0.1077
     12 C           7.9819   41.6302   11.3541 C.ar    1  UNL1        0.0634
     13 C           9.3074   42.0145   11.5997 C.ar    1  UNL1        0.0053
     14 C           9.9701   41.5717   12.7473 C.ar    1  UNL1        0.0002
     15 C           9.3065   40.7524   13.6654 C.ar    1  UNL1        0.0023
     16 C           7.9774   40.3843   13.4410 C.ar    1  UNL1        0.0297
     17 C           7.3098   40.8262   12.2949 C.ar    1  UNL1        0.1430
     18 F           6.0064   40.4909   12.1208 F       1  UNL1       -0.2041
     19 C           3.3355   42.8377    9.0066 C.3     1  UNL1        0.2559
     20 O           4.5318   42.9598    8.2543 O.3     1  UNL1       -0.4416
     21 C          14.4670   42.0237    8.1711 C.2     1  UNL1        0.2496
     22 O          14.2342   41.1565    9.0573 O.2     1  UNL1       -0.2698
     23 N          13.3888   42.7332    7.5433 N.am    1  UNL1       -0.2804
     24 H          13.6292   43.3412    6.8073 H       1  UNL1        0.1552
     25 C          15.8565   42.3030    7.7690 C.ar    1  UNL1        0.0559
     26 C          16.9287   41.7456    8.4826 C.ar    1  UNL1        0.0047
     27 C          18.2470   42.0085    8.0985 C.ar    1  UNL1        0.0025
     28 C          18.5029   42.8312    6.9982 C.ar    1  UNL1        0.0296
     29 C          17.4408   43.3922    6.2824 C.ar    1  UNL1        0.1403
     30 C          16.1226   43.1306    6.6672 C.ar    1  UNL1        0.0342
     31 F          17.6889   44.2018    5.2245 F       1  UNL1       -0.2042
@<TRIPOS>BOND
     1    19    20    1
     2     7    20    1
     3     7     9   ar
     4     8    10   ar
     5     8    12    1
     6     2     3   ar
     7     4     5   ar
     8     4    23    1
     9     6     1   ar
    10    21    25    1
    11    26    27   ar
    12    28    29   ar
    13    29    31    1
    14    30    25   ar
    15    13    14   ar
    16    15    16   ar
    17    17    18    1
    18    17    12   ar
    19    10    11   ar
    20    10     1    1
    21    23    21   am
    22     7    11   ar
    23     8     9   ar
    24     1     2   ar
    25     3     4   ar
    26     5     6   ar
    27    21    22    2
    28    25    26   ar
    29    27    28   ar
    30    29    30   ar
    31    12    13   ar
    32    14    15   ar
    33    16    17   ar
    34    23    24    1
