@<TRIPOS>MOLECULE
MolPort-020-275-095 MCULE-7977272301 PubChem-110252779
 27 30 0 0 0
SMALL
GASTEIGER

@<TRIPOS>ATOM
      1 C          13.8589   39.1444   11.5239 C.3     1  UNL1        0.0521
      2 C          13.1024   40.0213   10.5930 C.ar    1  UNL1        0.0602
      3 C          13.6429   40.3471    9.3480 C.ar    1  UNL1        0.0294
      4 C          12.9236   41.1743    8.4757 C.ar    1  UNL1        0.0528
      5 C          11.6745   41.6578    8.8726 C.ar    1  UNL1        0.0294
      6 C          11.1635   41.3121   10.1263 C.ar    1  UNL1        0.0611
      7 N          11.8846   40.5055   10.9543 N.ar    1  UNL1       -0.2538
      8 C           9.8272   41.8309   10.5430 C.3     1  UNL1        0.0602
      9 C           9.4500   41.3031   11.9290 C.3     1  UNL1        0.0094
     10 C           8.0837   41.8408   12.3493 C.3     1  UNL1        0.0220
     11 C           7.0278   41.4404   11.3235 C.3     1  UNL1        0.0936
     12 C           8.7604   41.4536    9.5152 C.3     1  UNL1        0.0995
     13 N           7.4492   41.8797    9.9959 N.pl3   1  UNL1       -0.2778
     14 C           6.6130   42.7306    9.1996 C.ar    1  UNL1        0.2202
     15 C           4.4870   43.6799    8.7643 C.ar    1  UNL1        0.1034
     16 C           5.0041   44.3650    7.6667 C.ar    1  UNL1        0.0414
     17 C           6.3543   44.2037    7.3628 C.ar    1  UNL1        0.1034
     18 N           5.2947   42.8795    9.5075 N.ar    1  UNL1       -0.2121
     19 N           7.1312   43.3944    8.1293 N.ar    1  UNL1       -0.2121
     20 N          13.4267   41.5434    7.1840 N.pl3   1  UNL1       -0.2825
     21 H          13.1292   40.9902    6.4258 H       1  UNL1        0.1551
     22 C          14.3136   42.6260    6.8707 C.ar    1  UNL1        0.2207
     23 C          14.7190   44.6187    5.6596 C.ar    1  UNL1        0.1034
     24 C          15.9831   44.7271    6.2359 C.ar    1  UNL1        0.0414
     25 C          16.3823   43.7465    7.1414 C.ar    1  UNL1        0.1034
     26 N          13.9111   43.5761    5.9853 N.ar    1  UNL1       -0.2120
     27 N          15.5461   42.7188    7.4416 N.ar    1  UNL1       -0.2120
@<TRIPOS>BOND
     1     1     2    1
     2     2     7   ar
     3     3     4   ar
     4     4    20    1
     5     5     6   ar
     6     8     6    1
     7     8     9    1
     8     9    10    1
     9    10    11    1
    10    11    13    1
    11    12    13    1
    12    12     8    1
    13    14    19   ar
    14    15    18   ar
    15    16    17   ar
    16    22    27   ar
    17    23    26   ar
    18    24    25   ar
    19    13    14    1
    20    20    22    1
    21     2     3   ar
    22     4     5   ar
    23     6     7   ar
    24    14    18   ar
    25    15    16   ar
    26    17    19   ar
    27    22    26   ar
    28    23    24   ar
    29    25    27   ar
    30    20    21    1
@<TRIPOS>MOLECULE
MolPort-020-275-095 MCULE-7977272301 PubChem-110252779
 27 30 0 0 0
SMALL
GASTEIGER

@<TRIPOS>ATOM
      1 C          13.3205   39.5047   11.4058 C.3     1  UNL1        0.0521
      2 C          12.8417   40.0367   10.1037 C.ar    1  UNL1        0.0602
      3 C          13.7321   40.6828    9.2446 C.ar    1  UNL1        0.0294
      4 C          13.2732   41.1815    8.0186 C.ar    1  UNL1        0.0528
      5 C          11.9273   41.0208    7.6804 C.ar    1  UNL1        0.0294
      6 C          11.0632   40.3693    8.5642 C.ar    1  UNL1        0.0611
      7 N          11.5369   39.8938    9.7499 N.ar    1  UNL1       -0.2538
      8 C           9.6268   40.1994    8.1953 C.3     1  UNL1        0.0602
      9 C           9.4716   40.0445    6.6808 C.3     1  UNL1        0.0094
     10 C           8.0002   39.8678    6.3120 C.3     1  UNL1        0.0220
     11 C           7.1912   41.0620    6.8089 C.3     1  UNL1        0.0936
     12 C           8.7987   41.3799    8.7027 C.3     1  UNL1        0.0995
     13 N           7.4208   41.2426    8.2398 N.pl3   1  UNL1       -0.2778
     14 C           6.3270   41.2536    9.1677 C.ar    1  UNL1        0.2202
     15 C           5.5359   41.4338   11.3931 C.ar    1  UNL1        0.1034
     16 C           4.2239   41.2724   10.9527 C.ar    1  UNL1        0.0414
     17 C           4.0009   41.1012    9.5880 C.ar    1  UNL1        0.1034
     18 N           6.5588   41.4219   10.4992 N.ar    1  UNL1       -0.2121
     19 N           5.0493   41.0947    8.7239 N.ar    1  UNL1       -0.2121
     20 N          14.1404   41.8539    7.0946 N.pl3   1  UNL1       -0.2825
     21 H          13.8409   41.8821    6.1572 H       1  UNL1        0.1551
     22 C          15.3937   42.4897    7.3802 C.ar    1  UNL1        0.2207
     23 C          16.7999   44.3789    7.1446 C.ar    1  UNL1        0.1034
     24 C          17.7883   43.7539    7.9025 C.ar    1  UNL1        0.0414
     25 C          17.5359   42.4734    8.3900 C.ar    1  UNL1        0.1034
     26 N          15.6268   43.7395    6.8982 N.ar    1  UNL1       -0.2120
     27 N          16.3503   41.8666    8.1222 N.ar    1  UNL1       -0.2120
@<TRIPOS>BOND
     1     1     2    1
     2     2     7   ar
     3     3     4   ar
     4     4    20    1
     5     5     6   ar
     6     8     6    1
     7     8     9    1
     8     9    10    1
     9    10    11    1
    10    11    13    1
    11    12    13    1
    12    12     8    1
    13    14    19   ar
    14    15    18   ar
    15    16    17   ar
    16    22    27   ar
    17    23    26   ar
    18    24    25   ar
    19    13    14    1
    20    20    22    1
    21     2     3   ar
    22     4     5   ar
    23     6     7   ar
    24    14    18   ar
    25    15    16   ar
    26    17    19   ar
    27    22    26   ar
    28    23    24   ar
    29    25    27   ar
    30    20    21    1
@<TRIPOS>MOLECULE
MolPort-020-275-095 MCULE-7977272301 PubChem-110252779
 27 30 0 0 0
SMALL
GASTEIGER

@<TRIPOS>ATOM
      1 C          11.5391   35.6019   10.9826 C.3     1  UNL1        0.0521
      2 C          12.5677   36.3958   10.2619 C.ar    1  UNL1        0.0602
      3 C          13.6980   35.7635    9.7412 C.ar    1  UNL1        0.0294
      4 C          14.6633   36.5187    9.0628 C.ar    1  UNL1        0.0528
      5 C          14.4731   37.8954    8.9212 C.ar    1  UNL1        0.0294
      6 C          13.3301   38.4961    9.4552 C.ar    1  UNL1        0.0611
      7 N          12.4073   37.7371   10.1099 N.ar    1  UNL1       -0.2538
      8 C          13.1325   39.9674    9.2983 C.3     1  UNL1        0.0602
      9 C          11.7468   40.3835    9.7968 C.3     1  UNL1        0.0094
     10 C          11.5538   41.8900    9.6362 C.3     1  UNL1        0.0220
     11 C          11.7324   42.2854    8.1736 C.3     1  UNL1        0.0936
     12 C          13.3265   40.3829    7.8401 C.3     1  UNL1        0.0995
     13 N          13.0255   41.8042    7.6948 N.pl3   1  UNL1       -0.2778
     14 C          13.9850   42.7065    7.1266 C.ar    1  UNL1        0.2202
     15 C          14.4710   44.5778    5.7583 C.ar    1  UNL1        0.1034
     16 C          15.8303   44.4402    6.0318 C.ar    1  UNL1        0.0414
     17 C          16.2340   43.4048    6.8722 C.ar    1  UNL1        0.1034
     18 N          13.5770   43.7144    6.3066 N.ar    1  UNL1       -0.2121
     19 N          15.3108   42.5607    7.4021 N.ar    1  UNL1       -0.2121
     20 N          15.8448   35.9254    8.5060 N.pl3   1  UNL1       -0.2825
     21 H          16.4305   36.5237    7.9881 H       1  UNL1        0.1551
     22 C          16.2703   34.5604    8.6176 C.ar    1  UNL1        0.2207
     23 C          15.7503   32.2602    8.4170 C.ar    1  UNL1        0.1034
     24 C          17.0412   31.9202    8.8171 C.ar    1  UNL1        0.0414
     25 C          17.9329   32.9486    9.1140 C.ar    1  UNL1        0.1034
     26 N          15.3897   33.5667    8.3248 N.ar    1  UNL1       -0.2120
     27 N          17.5349   34.2434    9.0099 N.ar    1  UNL1       -0.2120
@<TRIPOS>BOND
     1     1     2    1
     2     2     7   ar
     3     3     4   ar
     4     4    20    1
     5     5     6   ar
     6     8     6    1
     7     8     9    1
     8     9    10    1
     9    10    11    1
    10    11    13    1
    11    12    13    1
    12    12     8    1
    13    14    19   ar
    14    15    18   ar
    15    16    17   ar
    16    22    27   ar
    17    23    26   ar
    18    24    25   ar
    19    13    14    1
    20    20    22    1
    21     2     3   ar
    22     4     5   ar
    23     6     7   ar
    24    14    18   ar
    25    15    16   ar
    26    17    19   ar
    27    22    26   ar
    28    23    24   ar
    29    25    27   ar
    30    20    21    1
@<TRIPOS>MOLECULE
MolPort-020-275-095 MCULE-7977272301 PubChem-110252779
 27 30 0 0 0
SMALL
GASTEIGER

@<TRIPOS>ATOM
      1 C          10.2716   39.4049    3.5429 C.3     1  UNL1        0.0521
      2 C          10.2340   40.2442    4.7685 C.ar    1  UNL1        0.0602
      3 C          11.4175   40.5426    5.4456 C.ar    1  UNL1        0.0294
      4 C          11.3740   41.3347    6.6002 C.ar    1  UNL1        0.0528
      5 C          10.1408   41.8113    7.0515 C.ar    1  UNL1        0.0294
      6 C           8.9753   41.4929    6.3495 C.ar    1  UNL1        0.0611
      7 N           9.0472   40.7209    5.2293 N.ar    1  UNL1       -0.2538
      8 C           7.6613   42.0073    6.8364 C.3     1  UNL1        0.0602
      9 C           7.4399   43.4494    6.3747 C.3     1  UNL1        0.0094
     10 C           6.0925   43.9669    6.8738 C.3     1  UNL1        0.0220
     11 C           6.0328   43.8821    8.3958 C.3     1  UNL1        0.0936
     12 C           7.5783   41.9118    8.3598 C.3     1  UNL1        0.0995
     13 N           6.3307   42.5161    8.8182 N.pl3   1  UNL1       -0.2778
     14 C           5.4102   41.7779    9.6338 C.ar    1  UNL1        0.2202
     15 C           4.9284   40.6384   11.6537 C.ar    1  UNL1        0.1034
     16 C           3.6411   40.3561   11.2017 C.ar    1  UNL1        0.0414
     17 C           3.2698   40.8100    9.9377 C.ar    1  UNL1        0.1034
     18 N           5.7858   41.3400   10.8675 N.ar    1  UNL1       -0.2121
     19 N           4.1547   41.5087    9.1798 N.ar    1  UNL1       -0.2121
     20 N          12.5562   41.6751    7.3382 N.pl3   1  UNL1       -0.2825
     21 H          12.6430   41.2725    8.2324 H       1  UNL1        0.1551
     22 C          13.6260   42.5348    6.9222 C.ar    1  UNL1        0.2207
     23 C          14.3327   44.4284    5.6907 C.ar    1  UNL1        0.1034
     24 C          15.6493   44.2163    6.0951 C.ar    1  UNL1        0.0414
     25 C          15.9176   43.1325    6.9285 C.ar    1  UNL1        0.1034
     26 N          13.3500   43.5887    6.1089 N.ar    1  UNL1       -0.2120
     27 N          14.9078   42.3151    7.3254 N.ar    1  UNL1       -0.2120
@<TRIPOS>BOND
     1     1     2    1
     2     2     7   ar
     3     3     4   ar
     4     4    20    1
     5     5     6   ar
     6     8     6    1
     7     8     9    1
     8     9    10    1
     9    10    11    1
    10    11    13    1
    11    12    13    1
    12    12     8    1
    13    14    19   ar
    14    15    18   ar
    15    16    17   ar
    16    22    27   ar
    17    23    26   ar
    18    24    25   ar
    19    13    14    1
    20    20    22    1
    21     2     3   ar
    22     4     5   ar
    23     6     7   ar
    24    14    18   ar
    25    15    16   ar
    26    17    19   ar
    27    22    26   ar
    28    23    24   ar
    29    25    27   ar
    30    20    21    1
@<TRIPOS>MOLECULE
MolPort-020-275-095 MCULE-7977272301 PubChem-110252779
 27 30 0 0 0
SMALL
GASTEIGER

@<TRIPOS>ATOM
      1 C          15.8003   44.1622    6.4787 C.3     1  UNL1        0.0521
      2 C          14.7869   43.1188    6.7822 C.ar    1  UNL1        0.0602
      3 C          13.5320   43.1675    6.1728 C.ar    1  UNL1        0.0294
      4 C          12.5819   42.1801    6.4638 C.ar    1  UNL1        0.0528
      5 C          12.9123   41.1626    7.3622 C.ar    1  UNL1        0.0294
      6 C          14.1777   41.1444    7.9545 C.ar    1  UNL1        0.0611
      7 N          15.0824   42.1174    7.6527 N.ar    1  UNL1       -0.2538
      8 C          14.5246   40.0530    8.9120 C.3     1  UNL1        0.0602
      9 C          13.4419   39.9091    9.9839 C.3     1  UNL1        0.0094
     10 C          13.8024   38.7887   10.9571 C.3     1  UNL1        0.0220
     11 C          15.1544   39.0746   11.6036 C.3     1  UNL1        0.0936
     12 C          15.8864   40.3155    9.5551 C.3     1  UNL1        0.0995
     13 N          16.1545   39.2925   10.5618 N.pl3   1  UNL1       -0.2778
     14 C          17.3513   38.5035   10.5103 C.ar    1  UNL1        0.2202
     15 C          19.5965   38.2390    9.8036 C.ar    1  UNL1        0.1034
     16 C          19.6522   36.9852   10.4090 C.ar    1  UNL1        0.0414
     17 C          18.5163   36.5177   11.0668 C.ar    1  UNL1        0.1034
     18 N          18.4546   38.9723    9.8640 N.ar    1  UNL1       -0.2121
     19 N          17.3922   37.2796   11.1062 N.ar    1  UNL1       -0.2121
     20 N          11.2765   42.1771    5.8690 N.pl3   1  UNL1       -0.2825
     21 H          10.8394   43.0539    5.7722 H       1  UNL1        0.1551
     22 C          10.5352   41.0427    5.3993 C.ar    1  UNL1        0.2207
     23 C          10.3503   39.2413    3.8753 C.ar    1  UNL1        0.1034
     24 C           9.1463   38.8534    4.4599 C.ar    1  UNL1        0.0414
     25 C           8.6617   39.6002    5.5316 C.ar    1  UNL1        0.1034
     26 N          11.0198   40.3229    4.3526 N.ar    1  UNL1       -0.2120
     27 N           9.3600   40.6756    5.9804 N.ar    1  UNL1       -0.2120
@<TRIPOS>BOND
     1     1     2    1
     2     2     7   ar
     3     3     4   ar
     4     4    20    1
     5     5     6   ar
     6     8     6    1
     7     8     9    1
     8     9    10    1
     9    10    11    1
    10    11    13    1
    11    12    13    1
    12    12     8    1
    13    14    19   ar
    14    15    18   ar
    15    16    17   ar
    16    22    27   ar
    17    23    26   ar
    18    24    25   ar
    19    13    14    1
    20    20    22    1
    21     2     3   ar
    22     4     5   ar
    23     6     7   ar
    24    14    18   ar
    25    15    16   ar
    26    17    19   ar
    27    22    26   ar
    28    23    24   ar
    29    25    27   ar
    30    20    21    1
@<TRIPOS>MOLECULE
MolPort-020-275-095 MCULE-7977272301 PubChem-110252779
 27 30 0 0 0
SMALL
GASTEIGER

@<TRIPOS>ATOM
      1 C          15.6706   44.4063    5.7908 C.3     1  UNL1        0.0521
      2 C          15.4628   43.3016    6.7626 C.ar    1  UNL1        0.0602
      3 C          16.5393   42.8156    7.5063 C.ar    1  UNL1        0.0294
      4 C          16.3355   41.7741    8.4206 C.ar    1  UNL1        0.0528
      5 C          15.0527   41.2413    8.5692 C.ar    1  UNL1        0.0294
      6 C          13.9976   41.7514    7.8083 C.ar    1  UNL1        0.0611
      7 N          14.2245   42.7651    6.9267 N.ar    1  UNL1       -0.2538
      8 C          12.6290   41.1786    7.9737 C.3     1  UNL1        0.0602
      9 C          12.6755   39.6493    7.9461 C.3     1  UNL1        0.0094
     10 C          11.2725   39.0712    8.1193 C.3     1  UNL1        0.0220
     11 C          10.3538   39.5941    7.0193 C.3     1  UNL1        0.0936
     12 C          11.6908   41.7077    6.8891 C.3     1  UNL1        0.0995
     13 N          10.3907   41.0540    7.0089 N.pl3   1  UNL1       -0.2778
     14 C           9.1881   41.8242    7.1438 C.ar    1  UNL1        0.2202
     15 C           7.1454   42.6018    6.2310 C.ar    1  UNL1        0.1034
     16 C           6.8766   43.3073    7.4020 C.ar    1  UNL1        0.0414
     17 C           7.8047   43.2448    8.4394 C.ar    1  UNL1        0.1034
     18 N           8.2891   41.8768    6.1221 N.ar    1  UNL1       -0.2121
     19 N           8.9376   42.5092    8.2939 N.ar    1  UNL1       -0.2121
     20 N          17.4022   41.2334    9.2130 N.pl3   1  UNL1       -0.2825
     21 H          18.1954   41.8057    9.3250 H       1  UNL1        0.1551
     22 C          17.4452   39.9546    9.8607 C.ar    1  UNL1        0.2207
     23 C          16.4885   38.4420   11.4094 C.ar    1  UNL1        0.1034
     24 C          17.4851   37.5081   11.1327 C.ar    1  UNL1        0.0414
     25 C          18.4615   37.8420   10.1966 C.ar    1  UNL1        0.1034
     26 N          16.4861   39.6418   10.7722 N.ar    1  UNL1       -0.2120
     27 N          18.4253   39.0521    9.5802 N.ar    1  UNL1       -0.2120
@<TRIPOS>BOND
     1     1     2    1
     2     2     7   ar
     3     3     4   ar
     4     4    20    1
     5     5     6   ar
     6     8     6    1
     7     8     9    1
     8     9    10    1
     9    10    11    1
    10    11    13    1
    11    12    13    1
    12    12     8    1
    13    14    19   ar
    14    15    18   ar
    15    16    17   ar
    16    22    27   ar
    17    23    26   ar
    18    24    25   ar
    19    13    14    1
    20    20    22    1
    21     2     3   ar
    22     4     5   ar
    23     6     7   ar
    24    14    18   ar
    25    15    16   ar
    26    17    19   ar
    27    22    26   ar
    28    23    24   ar
    29    25    27   ar
    30    20    21    1
@<TRIPOS>MOLECULE
MolPort-020-275-095 MCULE-7977272301 PubChem-110252779
 27 30 0 0 0
SMALL
GASTEIGER

@<TRIPOS>ATOM
      1 C           9.9384   40.0756    4.3777 C.3     1  UNL1        0.0521
      2 C          10.4759   40.6987    5.6149 C.ar    1  UNL1        0.0602
      3 C          11.8548   40.8313    5.7863 C.ar    1  UNL1        0.0294
      4 C          12.3539   41.4200    6.9554 C.ar    1  UNL1        0.0528
      5 C          11.4564   41.8640    7.9295 C.ar    1  UNL1        0.0294
      6 C          10.0821   41.7152    7.7256 C.ar    1  UNL1        0.0611
      7 N           9.6245   41.1393    6.5788 N.ar    1  UNL1       -0.2538
      8 C           9.1288   42.1937    8.7699 C.3     1  UNL1        0.0602
      9 C           9.8607   42.4693   10.0853 C.3     1  UNL1        0.0094
     10 C           8.8795   42.9615   11.1471 C.3     1  UNL1        0.0220
     11 C           7.7786   41.9268   11.3591 C.3     1  UNL1        0.0936
     12 C           8.0083   41.1755    8.9812 C.3     1  UNL1        0.0995
     13 N           7.1507   41.6161   10.0777 N.pl3   1  UNL1       -0.2778
     14 C           5.7367   41.7690    9.8918 C.ar    1  UNL1        0.2202
     15 C           3.9003   43.0746    9.1614 C.ar    1  UNL1        0.1034
     16 C           3.0171   42.0643    9.5364 C.ar    1  UNL1        0.0414
     17 C           3.5422   40.9011   10.0955 C.ar    1  UNL1        0.1034
     18 N           5.2364   42.9113    9.3441 N.ar    1  UNL1       -0.2121
     19 N           4.8844   40.7737   10.2628 N.ar    1  UNL1       -0.2121
     20 N          13.7600   41.5838    7.1880 N.pl3   1  UNL1       -0.2825
     21 H          14.2188   40.8340    7.6312 H       1  UNL1        0.1551
     22 C          14.5736   42.7150    6.8487 C.ar    1  UNL1        0.2207
     23 C          16.6169   43.8821    7.1034 C.ar    1  UNL1        0.1034
     24 C          16.1757   44.8719    6.2273 C.ar    1  UNL1        0.0414
     25 C          14.9039   44.7441    5.6730 C.ar    1  UNL1        0.1034
     26 N          15.8127   42.8271    7.3970 N.ar    1  UNL1       -0.2120
     27 N          14.1291   43.6745    5.9911 N.ar    1  UNL1       -0.2120
@<TRIPOS>BOND
     1     1     2    1
     2     2     7   ar
     3     3     4   ar
     4     4    20    1
     5     5     6   ar
     6     8     6    1
     7     8     9    1
     8     9    10    1
     9    10    11    1
    10    11    13    1
    11    12    13    1
    12    12     8    1
    13    14    19   ar
    14    15    18   ar
    15    16    17   ar
    16    22    27   ar
    17    23    26   ar
    18    24    25   ar
    19    13    14    1
    20    20    22    1
    21     2     3   ar
    22     4     5   ar
    23     6     7   ar
    24    14    18   ar
    25    15    16   ar
    26    17    19   ar
    27    22    26   ar
    28    23    24   ar
    29    25    27   ar
    30    20    21    1
@<TRIPOS>MOLECULE
MolPort-020-275-095 MCULE-7977272301 PubChem-110252779
 27 30 0 0 0
SMALL
GASTEIGER

@<TRIPOS>ATOM
      1 C           9.1668   41.0720   14.5026 C.3     1  UNL1        0.0521
      2 C           9.1805   41.2874   13.0325 C.ar    1  UNL1        0.0602
      3 C           8.0536   41.8072   12.3936 C.ar    1  UNL1        0.0294
      4 C           8.0742   42.0077   11.0073 C.ar    1  UNL1        0.0528
      5 C           9.2279   41.6813   10.2904 C.ar    1  UNL1        0.0294
      6 C          10.3380   41.1625   10.9618 C.ar    1  UNL1        0.0611
      7 N          10.2903   40.9783   12.3109 N.ar    1  UNL1       -0.2538
      8 C          11.5682   40.8179   10.1896 C.3     1  UNL1        0.0602
      9 C          11.8342   41.8608    9.1017 C.3     1  UNL1        0.0094
     10 C          13.0957   41.5031    8.3188 C.3     1  UNL1        0.0220
     11 C          12.9495   40.1163    7.7000 C.3     1  UNL1        0.0936
     12 C          11.4450   39.4224    9.5779 C.3     1  UNL1        0.0995
     13 N          12.6122   39.1519    8.7435 N.pl3   1  UNL1       -0.2778
     14 C          13.4217   37.9883    8.9634 C.ar    1  UNL1        0.2202
     15 C          13.5969   35.7034    9.5625 C.ar    1  UNL1        0.1034
     16 C          14.9785   35.7511    9.3888 C.ar    1  UNL1        0.0414
     17 C          15.5540   36.9574    8.9948 C.ar    1  UNL1        0.1034
     18 N          12.8465   36.8154    9.3483 N.ar    1  UNL1       -0.2121
     19 N          14.7712   38.0487    8.7901 N.ar    1  UNL1       -0.2121
     20 N           6.9476   42.5387   10.2953 N.pl3   1  UNL1       -0.2825
     21 H           7.1198   43.3287    9.7337 H       1  UNL1        0.1551
     22 C           5.5993   42.0502   10.3082 C.ar    1  UNL1        0.2207
     23 C           3.6898   41.4247   11.5589 C.ar    1  UNL1        0.1034
     24 C           3.0066   41.1137   10.3849 C.ar    1  UNL1        0.0414
     25 C           3.6671   41.2880    9.1706 C.ar    1  UNL1        0.1034
     26 N           4.9668   41.8848   11.5003 N.ar    1  UNL1       -0.2120
     27 N           4.9444   41.7504    9.1528 N.ar    1  UNL1       -0.2120
@<TRIPOS>BOND
     1     1     2    1
     2     2     7   ar
     3     3     4   ar
     4     4    20    1
     5     5     6   ar
     6     8     6    1
     7     8     9    1
     8     9    10    1
     9    10    11    1
    10    11    13    1
    11    12    13    1
    12    12     8    1
    13    14    19   ar
    14    15    18   ar
    15    16    17   ar
    16    22    27   ar
    17    23    26   ar
    18    24    25   ar
    19    13    14    1
    20    20    22    1
    21     2     3   ar
    22     4     5   ar
    23     6     7   ar
    24    14    18   ar
    25    15    16   ar
    26    17    19   ar
    27    22    26   ar
    28    23    24   ar
    29    25    27   ar
    30    20    21    1
@<TRIPOS>MOLECULE
MolPort-020-275-095 MCULE-7977272301 PubChem-110252779
 27 30 0 0 0
SMALL
GASTEIGER

@<TRIPOS>ATOM
      1 C          15.9483   44.7207    6.1506 C.3     1  UNL1        0.0521
      2 C          15.7082   43.5252    6.9998 C.ar    1  UNL1        0.0602
      3 C          16.7621   42.9565    7.7169 C.ar    1  UNL1        0.0294
      4 C          16.5279   41.8297    8.5155 C.ar    1  UNL1        0.0528
      5 C          15.2381   41.2965    8.5774 C.ar    1  UNL1        0.0294
      6 C          14.2064   41.8908    7.8461 C.ar    1  UNL1        0.0611
      7 N          14.4626   42.9864    7.0779 N.ar    1  UNL1       -0.2538
      8 C          12.8302   41.3169    7.9186 C.3     1  UNL1        0.0602
      9 C          12.3454   40.8965    6.5293 C.3     1  UNL1        0.0094
     10 C          10.9387   40.3075    6.6124 C.3     1  UNL1        0.0220
     11 C           9.9818   41.3272    7.2222 C.3     1  UNL1        0.0936
     12 C          11.8621   42.3205    8.5450 C.3     1  UNL1        0.0995
     13 N          10.5071   41.7777    8.5083 N.pl3   1  UNL1       -0.2778
     14 C           9.7269   41.6619    9.7063 C.ar    1  UNL1        0.2202
     15 C           7.6334   41.8089   10.8046 C.ar    1  UNL1        0.1034
     16 C           8.2266   41.4416   12.0107 C.ar    1  UNL1        0.0414
     17 C           9.5967   41.1885   12.0235 C.ar    1  UNL1        0.1034
     18 N           8.3884   41.9122    9.6800 N.ar    1  UNL1       -0.2121
     19 N          10.3193   41.3021   10.8787 N.ar    1  UNL1       -0.2121
     20 N          17.5703   41.2017    9.2752 N.pl3   1  UNL1       -0.2825
     21 H          18.3884   41.7315    9.4138 H       1  UNL1        0.1551
     22 C          17.5567   39.8905    9.8560 C.ar    1  UNL1        0.2207
     23 C          18.5055   37.7256    9.9772 C.ar    1  UNL1        0.1034
     24 C          17.5714   37.3561   10.9430 C.ar    1  UNL1        0.0414
     25 C          16.6293   38.3002   11.3458 C.ar    1  UNL1        0.1034
     26 N          18.4819   38.9790    9.4537 N.ar    1  UNL1       -0.2120
     27 N          16.6377   39.5438   10.7988 N.ar    1  UNL1       -0.2120
@<TRIPOS>BOND
     1     1     2    1
     2     2     7   ar
     3     3     4   ar
     4     4    20    1
     5     5     6   ar
     6     8     6    1
     7     8     9    1
     8     9    10    1
     9    10    11    1
    10    11    13    1
    11    12    13    1
    12    12     8    1
    13    14    19   ar
    14    15    18   ar
    15    16    17   ar
    16    22    27   ar
    17    23    26   ar
    18    24    25   ar
    19    13    14    1
    20    20    22    1
    21     2     3   ar
    22     4     5   ar
    23     6     7   ar
    24    14    18   ar
    25    15    16   ar
    26    17    19   ar
    27    22    26   ar
    28    23    24   ar
    29    25    27   ar
    30    20    21    1
@<TRIPOS>MOLECULE
MolPort-020-275-095 MCULE-7977272301 PubChem-110252779
 27 30 0 0 0
SMALL
GASTEIGER

@<TRIPOS>ATOM
      1 C          14.2521   38.7400   12.0597 C.3     1  UNL1        0.0521
      2 C          13.9251   39.4198   10.7796 C.ar    1  UNL1        0.0602
      3 C          14.9215   40.0994   10.0768 C.ar    1  UNL1        0.0294
      4 C          14.6056   40.7378    8.8706 C.ar    1  UNL1        0.0528
      5 C          13.2935   40.6804    8.3944 C.ar    1  UNL1        0.0294
      6 C          12.3207   39.9916    9.1236 C.ar    1  UNL1        0.0611
      7 N          12.6562   39.3794   10.2936 N.ar    1  UNL1       -0.2538
      8 C          10.9211   39.9326    8.6077 C.3     1  UNL1        0.0602
      9 C          10.6397   38.5748    7.9604 C.3     1  UNL1        0.0094
     10 C           9.2054   38.5213    7.4384 C.3     1  UNL1        0.0220
     11 C           8.9738   39.6461    6.4341 C.3     1  UNL1        0.0936
     12 C          10.6672   41.0654    7.6132 C.3     1  UNL1        0.0995
     13 N           9.3294   40.9239    7.0455 N.pl3   1  UNL1       -0.2778
     14 C           8.3821   41.9987    7.1145 C.ar    1  UNL1        0.2202
     15 C           7.4297   43.8109    8.3058 C.ar    1  UNL1        0.1034
     16 C           6.5585   44.0642    7.2484 C.ar    1  UNL1        0.0414
     17 C           6.6315   43.2478    6.1216 C.ar    1  UNL1        0.1034
     18 N           8.3210   42.7892    8.2218 N.ar    1  UNL1       -0.2121
     19 N           7.5361   42.2353    6.0737 N.ar    1  UNL1       -0.2121
     20 N          15.5862   41.4511    8.1040 N.pl3   1  UNL1       -0.2825
     21 H          16.5086   41.1102    8.1509 H       1  UNL1        0.1551
     22 C          15.3765   42.6039    7.2772 C.ar    1  UNL1        0.2207
     23 C          14.0539   43.7152    5.6592 C.ar    1  UNL1        0.1034
     24 C          14.9301   44.7988    5.6683 C.ar    1  UNL1        0.0414
     25 C          16.0380   44.7451    6.5114 C.ar    1  UNL1        0.1034
     26 N          14.2912   42.6430    6.4592 N.ar    1  UNL1       -0.2120
     27 N          16.2413   43.6553    7.2967 N.ar    1  UNL1       -0.2120
@<TRIPOS>BOND
     1     1     2    1
     2     2     7   ar
     3     3     4   ar
     4     4    20    1
     5     5     6   ar
     6     8     6    1
     7     8     9    1
     8     9    10    1
     9    10    11    1
    10    11    13    1
    11    12    13    1
    12    12     8    1
    13    14    19   ar
    14    15    18   ar
    15    16    17   ar
    16    22    27   ar
    17    23    26   ar
    18    24    25   ar
    19    13    14    1
    20    20    22    1
    21     2     3   ar
    22     4     5   ar
    23     6     7   ar
    24    14    18   ar
    25    15    16   ar
    26    17    19   ar
    27    22    26   ar
    28    23    24   ar
    29    25    27   ar
    30    20    21    1
