@<TRIPOS>MOLECULE
MolPort-001-980-411 5007089 CHEMBL1312536 CSSS00121700322 LN01130057 MCULE-6991564078 PubChem-3141658 ZINC000005007089
 30 34 0 0 0
SMALL
GASTEIGER

@<TRIPOS>ATOM
      1 C          11.5302   42.2585    7.6950 C.ar    1  UNL1        0.0903
      2 C           9.1455   42.9289    8.0995 C.ar    1  UNL1        0.0809
      3 C           9.3039   42.0511    7.0193 C.ar    1  UNL1       -0.0001
      4 C           8.1731   41.5847    6.1598 C.3     1  UNL1        0.0325
      5 C          10.6433   41.6886    6.7800 C.ar    1  UNL1        0.0847
      6 S          10.6707   43.2345    8.7529 S.2     1  UNL1       -0.0673
      7 C           7.8676   43.4683    8.6220 C.2     1  UNL1        0.2548
      8 C           6.5362   41.3517    8.2359 C.3     1  UNL1        0.0937
      9 C           5.8046   40.7501    9.4326 C.3     1  UNL1        0.0216
     10 C           4.4439   41.4233    9.6029 C.3     1  UNL1        0.0035
     11 C           4.6149   42.9306    9.7851 C.3     1  UNL1        0.0216
     12 C           5.3571   43.5205    8.5885 C.3     1  UNL1        0.0937
     13 N           6.6138   42.8023    8.3919 N.am    1  UNL1       -0.2757
     14 O           7.8791   44.5495    9.2719 O.2     1  UNL1       -0.2694
     15 C          13.8423   42.9901    6.9246 C.2     1  UNL1        0.2255
     16 N          12.9592   42.1653    7.6944 N.am    1  UNL1       -0.2784
     17 O          13.4024   43.6272    5.9282 O.2     1  UNL1       -0.2748
     18 H          13.3680   41.4788    8.2696 H       1  UNL1        0.1553
     19 C          15.3106   43.0037    7.2506 C.3     1  UNL1        0.0691
     20 C          15.7178   41.7599    8.0710 C.3     1  UNL1        0.0086
     21 C          17.2190   41.8048    8.3973 C.3     1  UNL1        0.0005
     22 C          18.0195   41.8319    7.0859 C.3     1  UNL1        0.0000
     23 C          17.6348   43.0709    6.2616 C.3     1  UNL1        0.0005
     24 C          17.9384   44.3384    7.0775 C.3     1  UNL1        0.0000
     25 C          17.1389   44.3225    8.3907 C.3     1  UNL1        0.0005
     26 C          17.5253   43.0773    9.2049 C.3     1  UNL1        0.0000
     27 C          15.6373   44.2688    8.0678 C.3     1  UNL1        0.0086
     28 C          16.1317   43.0196    5.9456 C.3     1  UNL1        0.0086
     29 C          11.0520   40.9053    5.6393 C.1     1  UNL1        0.1019
     30 N          11.3802   40.2812    4.7217 N.1     1  UNL1       -0.1908
@<TRIPOS>BOND
     1     1    16    1
     2     1     6   ar
     3    19    15    1
     4    19    20    1
     5    21    20    1
     6    21    22    1
     7    23    22    1
     8    23    24    1
     9    23    28    1
    10    25    24    1
    11    25    26    1
    12    25    27    1
    13    26    21    1
    14    27    19    1
    15    28    19    1
    16     2     6   ar
    17     2     7    1
    18     3     5   ar
    19     4     3    1
    20     5    29    1
    21     7    13   am
    22     8    13    1
    23     8     9    1
    24     9    10    1
    25    10    11    1
    26    11    12    1
    27    12    13    1
    28    16    15   am
    29    15    17    2
    30     2     3   ar
    31     5     1   ar
    32     7    14    2
    33    29    30    3
    34    16    18    1
@<TRIPOS>MOLECULE
MolPort-001-980-411 5007089 CHEMBL1312536 CSSS00121700322 LN01130057 MCULE-6991564078 PubChem-3141658 ZINC000005007089
 30 34 0 0 0
SMALL
GASTEIGER

@<TRIPOS>ATOM
      1 C           7.1078   40.7588    7.6579 C.ar    1  UNL1        0.0903
      2 C           5.5223   41.8494    9.2693 C.ar    1  UNL1        0.0809
      3 C           6.8319   41.7472    9.7562 C.ar    1  UNL1       -0.0001
      4 C           7.2461   42.2042   11.1181 C.3     1  UNL1        0.0325
      5 C           7.7183   41.1191    8.8603 C.ar    1  UNL1        0.0847
      6 S           5.4838   41.1695    7.7257 S.2     1  UNL1       -0.0673
      7 C           4.3701   42.4822    9.9541 C.2     1  UNL1        0.2548
      8 C           3.5921   40.3737   11.1163 C.3     1  UNL1        0.0937
      9 C           3.4465   40.4178   12.6349 C.3     1  UNL1        0.0216
     10 C           2.0758   40.9781   13.0101 C.3     1  UNL1        0.0035
     11 C           1.8903   42.3734   12.4160 C.3     1  UNL1        0.0216
     12 C           2.0488   42.3202   10.8985 C.3     1  UNL1        0.0937
     13 N           3.3282   41.7000   10.5633 N.am    1  UNL1       -0.2757
     14 O           4.2937   43.7410    9.9885 O.2     1  UNL1       -0.2694
     15 C           8.6265   40.5752    5.6247 C.2     1  UNL1        0.2255
     16 N           7.6924   40.0367    6.5681 N.am    1  UNL1       -0.2784
     17 O           8.7322   41.8248    5.4843 O.2     1  UNL1       -0.2748
     18 H           7.4312   39.0939    6.4582 H       1  UNL1        0.1553
     19 C           9.3972   39.6400    4.7337 C.3     1  UNL1        0.0691
     20 C           8.5566   39.2020    3.5141 C.3     1  UNL1        0.0086
     21 C           9.3646   38.2412    2.6275 C.3     1  UNL1        0.0005
     22 C          10.6350   38.9540    2.1384 C.3     1  UNL1        0.0000
     23 C          11.4898   39.3868    3.3403 C.3     1  UNL1        0.0005
     24 C          11.8782   38.1456    4.1608 C.3     1  UNL1        0.0000
     25 C          10.6132   37.4271    4.6581 C.3     1  UNL1        0.0005
     26 C           9.7620   37.0040    3.4501 C.3     1  UNL1        0.0000
     27 C           9.7987   38.3883    5.5380 C.3     1  UNL1        0.0086
     28 C          10.6716   40.3422    4.2231 C.3     1  UNL1        0.0086
     29 C           9.0789   40.7867    9.2069 C.1     1  UNL1        0.1019
     30 N          10.1717   40.5240    9.4822 N.1     1  UNL1       -0.1908
@<TRIPOS>BOND
     1     1    16    1
     2     1     6   ar
     3    19    15    1
     4    19    20    1
     5    21    20    1
     6    21    22    1
     7    23    22    1
     8    23    24    1
     9    23    28    1
    10    25    24    1
    11    25    26    1
    12    25    27    1
    13    26    21    1
    14    27    19    1
    15    28    19    1
    16     2     6   ar
    17     2     7    1
    18     3     5   ar
    19     4     3    1
    20     5    29    1
    21     7    13   am
    22     8    13    1
    23     8     9    1
    24     9    10    1
    25    10    11    1
    26    11    12    1
    27    12    13    1
    28    16    15   am
    29    15    17    2
    30     2     3   ar
    31     5     1   ar
    32     7    14    2
    33    29    30    3
    34    16    18    1
@<TRIPOS>MOLECULE
MolPort-001-980-411 5007089 CHEMBL1312536 CSSS00121700322 LN01130057 MCULE-6991564078 PubChem-3141658 ZINC000005007089
 30 34 0 0 0
SMALL
GASTEIGER

@<TRIPOS>ATOM
      1 C          12.9431   41.5769    7.9665 C.ar    1  UNL1        0.0903
      2 C          15.3049   41.1030    8.6718 C.ar    1  UNL1        0.0809
      3 C          15.1981   42.1417    7.7377 C.ar    1  UNL1       -0.0001
      4 C          16.3744   42.8758    7.1789 C.3     1  UNL1        0.0325
      5 C          13.8753   42.3963    7.3276 C.ar    1  UNL1        0.0847
      6 S          13.7528   40.5215    8.9868 S.2     1  UNL1       -0.0673
      7 C          16.5476   40.6171    9.3171 C.2     1  UNL1        0.2548
      8 C          15.6406   38.3266    9.8939 C.3     1  UNL1        0.0937
      9 C          16.4196   37.1129    9.3946 C.3     1  UNL1        0.0216
     10 C          17.5415   36.7754   10.3749 C.3     1  UNL1        0.0035
     11 C          18.4742   37.9728   10.5492 C.3     1  UNL1        0.0216
     12 C          17.6837   39.1839   11.0382 C.3     1  UNL1        0.0937
     13 N          16.5642   39.4330   10.1334 N.am    1  UNL1       -0.2757
     14 O          17.6156   41.2697    9.1591 O.2     1  UNL1       -0.2694
     15 C          10.5168   41.8604    8.6783 C.2     1  UNL1        0.2255
     16 N          11.5323   41.5152    7.7286 N.am    1  UNL1       -0.2784
     17 O          10.7943   41.9122    9.9081 O.2     1  UNL1       -0.2748
     18 H          11.2363   41.2108    6.8403 H       1  UNL1        0.1553
     19 C           9.1015   42.0542    8.2073 C.3     1  UNL1        0.0691
     20 C           8.5315   43.4109    8.6770 C.3     1  UNL1        0.0086
     21 C           7.0834   43.5778    8.1899 C.3     1  UNL1        0.0005
     22 C           7.0579   43.5209    6.6546 C.3     1  UNL1        0.0000
     23 C           7.6115   42.1714    6.1699 C.3     1  UNL1        0.0005
     24 C           6.7499   41.0337    6.7425 C.3     1  UNL1        0.0000
     25 C           6.7720   41.0797    8.2792 C.3     1  UNL1        0.0005
     26 C           6.2230   42.4346    8.7541 C.3     1  UNL1        0.0000
     27 C           8.2200   40.9218    8.7690 C.3     1  UNL1        0.0086
     28 C           9.0570   42.0116    6.6665 C.3     1  UNL1        0.0086
     29 C          13.5459   43.3269    6.2752 C.1     1  UNL1        0.1019
     30 N          13.2776   44.0706    5.4303 N.1     1  UNL1       -0.1908
@<TRIPOS>BOND
     1     1    16    1
     2     1     6   ar
     3    19    15    1
     4    19    20    1
     5    21    20    1
     6    21    22    1
     7    23    22    1
     8    23    24    1
     9    23    28    1
    10    25    24    1
    11    25    26    1
    12    25    27    1
    13    26    21    1
    14    27    19    1
    15    28    19    1
    16     2     6   ar
    17     2     7    1
    18     3     5   ar
    19     4     3    1
    20     5    29    1
    21     7    13   am
    22     8    13    1
    23     8     9    1
    24     9    10    1
    25    10    11    1
    26    11    12    1
    27    12    13    1
    28    16    15   am
    29    15    17    2
    30     2     3   ar
    31     5     1   ar
    32     7    14    2
    33    29    30    3
    34    16    18    1
@<TRIPOS>MOLECULE
MolPort-001-980-411 5007089 CHEMBL1312536 CSSS00121700322 LN01130057 MCULE-6991564078 PubChem-3141658 ZINC000005007089
 30 34 0 0 0
SMALL
GASTEIGER

@<TRIPOS>ATOM
      1 C          12.9701   41.7246    7.9341 C.ar    1  UNL1        0.0903
      2 C          15.3181   41.1840    8.6372 C.ar    1  UNL1        0.0809
      3 C          15.2409   42.2159    7.6929 C.ar    1  UNL1       -0.0001
      4 C          16.4378   42.9070    7.1231 C.3     1  UNL1        0.0325
      5 C          13.9254   42.5078    7.2841 C.ar    1  UNL1        0.0847
      6 S          13.7496   40.6547    8.9628 S.2     1  UNL1       -0.0673
      7 C          16.5471   40.6658    9.2838 C.2     1  UNL1        0.2548
      8 C          15.5769   38.4035    9.8688 C.3     1  UNL1        0.0937
      9 C          16.3216   37.1669    9.3734 C.3     1  UNL1        0.0216
     10 C          17.4341   36.8016   10.3544 C.3     1  UNL1        0.0035
     11 C          18.3999   37.9732   10.5243 C.3     1  UNL1        0.0216
     12 C          17.6436   39.2074   11.0094 C.3     1  UNL1        0.0937
     13 N          16.5311   39.4845   10.1041 N.am    1  UNL1       -0.2757
     14 O          17.6328   41.2879    9.1231 O.2     1  UNL1       -0.2694
     15 C          10.5497   41.7402    8.7189 C.2     1  UNL1        0.2255
     16 N          11.5573   41.7047    7.7010 N.am    1  UNL1       -0.2784
     17 O          10.8441   41.4410    9.9089 O.2     1  UNL1       -0.2748
     18 H          11.2537   41.6633    6.7654 H       1  UNL1        0.1553
     19 C           9.1246   42.0322    8.3365 C.3     1  UNL1        0.0691
     20 C           8.9392   42.0238    6.8030 C.3     1  UNL1        0.0086
     21 C           7.4779   42.3336    6.4413 C.3     1  UNL1        0.0005
     22 C           6.5662   41.2674    7.0685 C.3     1  UNL1        0.0000
     23 C           6.7296   41.2701    8.5968 C.3     1  UNL1        0.0005
     24 C           6.3548   42.6568    9.1455 C.3     1  UNL1        0.0000
     25 C           7.2644   43.7307    8.5265 C.3     1  UNL1        0.0005
     26 C           7.0991   43.7162    6.9983 C.3     1  UNL1        0.0000
     27 C           8.7273   43.4187    8.8791 C.3     1  UNL1        0.0086
     28 C           8.1944   40.9652    8.9479 C.3     1  UNL1        0.0086
     29 C          13.6219   43.4375    6.2232 C.1     1  UNL1        0.1019
     30 N          13.3827   44.1853    5.3732 N.1     1  UNL1       -0.1908
@<TRIPOS>BOND
     1     1    16    1
     2     1     6   ar
     3    19    15    1
     4    19    20    1
     5    21    20    1
     6    21    22    1
     7    23    22    1
     8    23    24    1
     9    23    28    1
    10    25    24    1
    11    25    26    1
    12    25    27    1
    13    26    21    1
    14    27    19    1
    15    28    19    1
    16     2     6   ar
    17     2     7    1
    18     3     5   ar
    19     4     3    1
    20     5    29    1
    21     7    13   am
    22     8    13    1
    23     8     9    1
    24     9    10    1
    25    10    11    1
    26    11    12    1
    27    12    13    1
    28    16    15   am
    29    15    17    2
    30     2     3   ar
    31     5     1   ar
    32     7    14    2
    33    29    30    3
    34    16    18    1
@<TRIPOS>MOLECULE
MolPort-001-980-411 5007089 CHEMBL1312536 CSSS00121700322 LN01130057 MCULE-6991564078 PubChem-3141658 ZINC000005007089
 30 34 0 0 0
SMALL
GASTEIGER

@<TRIPOS>ATOM
      1 C          10.8474   41.4039    8.4530 C.ar    1  UNL1        0.0903
      2 C          12.9781   42.1778    7.3756 C.ar    1  UNL1        0.0809
      3 C          13.1277   41.0101    8.1349 C.ar    1  UNL1       -0.0001
      4 C          14.4340   40.3081    8.3241 C.3     1  UNL1        0.0325
      5 C          11.9369   40.5851    8.7547 C.ar    1  UNL1        0.0847
      6 S          11.3648   42.6617    7.4727 S.2     1  UNL1       -0.0673
      7 C          14.0285   42.8578    6.5810 C.2     1  UNL1        0.2548
      8 C          15.6886   43.0408    8.4816 C.3     1  UNL1        0.0937
      9 C          17.0798   42.4527    8.2624 C.3     1  UNL1        0.0216
     10 C          17.9704   43.4726    7.5552 C.3     1  UNL1        0.0035
     11 C          17.3503   43.8866    6.2216 C.3     1  UNL1        0.0216
     12 C          15.9553   44.4631    6.4507 C.3     1  UNL1        0.0937
     13 N          15.1503   43.5060    7.2055 N.am    1  UNL1       -0.2757
     14 O          13.9262   42.8822    5.3238 O.2     1  UNL1       -0.2694
     15 C           8.6579   42.4183    9.2602 C.2     1  UNL1        0.2255
     16 N           9.5170   41.3080    8.9742 N.am    1  UNL1       -0.2784
     17 O           9.1452   43.5741    9.3979 O.2     1  UNL1       -0.2748
     18 H           9.1640   40.4060    9.1502 H       1  UNL1        0.1553
     19 C           7.1928   42.1752    9.4988 C.3     1  UNL1        0.0691
     20 C           6.6416   41.0828    8.5561 C.3     1  UNL1        0.0086
     21 C           5.1428   40.8620    8.8153 C.3     1  UNL1        0.0005
     22 C           4.9427   40.4218   10.2739 C.3     1  UNL1        0.0000
     23 C           5.4758   41.5038   11.2266 C.3     1  UNL1        0.0005
     24 C           4.7191   42.8188   10.9763 C.3     1  UNL1        0.0000
     25 C           4.9163   43.2699    9.5197 C.3     1  UNL1        0.0005
     26 C           4.3865   42.1794    8.5748 C.3     1  UNL1        0.0000
     27 C           6.4150   43.4830    9.2550 C.3     1  UNL1        0.0086
     28 C           6.9728   41.7211   10.9558 C.3     1  UNL1        0.0086
     29 C          11.8880   39.4876    9.6901 C.1     1  UNL1        0.1019
     30 N          11.8486   38.6042   10.4365 N.1     1  UNL1       -0.1908
@<TRIPOS>BOND
     1     1    16    1
     2     1     6   ar
     3    19    15    1
     4    19    20    1
     5    21    20    1
     6    21    22    1
     7    23    22    1
     8    23    24    1
     9    23    28    1
    10    25    24    1
    11    25    26    1
    12    25    27    1
    13    26    21    1
    14    27    19    1
    15    28    19    1
    16     2     6   ar
    17     2     7    1
    18     3     5   ar
    19     4     3    1
    20     5    29    1
    21     7    13   am
    22     8    13    1
    23     8     9    1
    24     9    10    1
    25    10    11    1
    26    11    12    1
    27    12    13    1
    28    16    15   am
    29    15    17    2
    30     2     3   ar
    31     5     1   ar
    32     7    14    2
    33    29    30    3
    34    16    18    1
@<TRIPOS>MOLECULE
MolPort-001-980-411 5007089 CHEMBL1312536 CSSS00121700322 LN01130057 MCULE-6991564078 PubChem-3141658 ZINC000005007089
 30 34 0 0 0
SMALL
GASTEIGER

@<TRIPOS>ATOM
      1 C           9.6826   40.6990   10.3544 C.ar    1  UNL1        0.0903
      2 C          11.9354   39.8274    9.6721 C.ar    1  UNL1        0.0809
      3 C          11.8359   40.1089   11.0409 C.ar    1  UNL1       -0.0001
      4 C          12.9687   39.9472   12.0031 C.3     1  UNL1        0.0325
      5 C          10.5783   40.6151   11.4217 C.ar    1  UNL1        0.0847
      6 S          10.4551   40.1989    8.9530 S.2     1  UNL1       -0.0673
      7 C          13.1093   39.2587    8.9683 C.2     1  UNL1        0.2548
      8 C          13.1799   37.1146   10.3098 C.3     1  UNL1        0.0937
      9 C          13.1325   35.7981    9.5391 C.3     1  UNL1        0.0216
     10 C          14.5385   35.4104    9.0846 C.3     1  UNL1        0.0035
     11 C          15.1411   36.5145    8.2174 C.3     1  UNL1        0.0216
     12 C          15.1737   37.8289    8.9934 C.3     1  UNL1        0.0937
     13 N          13.8353   38.1334    9.4930 N.am    1  UNL1       -0.2757
     14 O          13.4912   39.7870    7.8882 O.2     1  UNL1       -0.2694
     15 C           7.3707   41.0483    9.3509 C.2     1  UNL1        0.2255
     16 N           8.3568   41.2399   10.3724 N.am    1  UNL1       -0.2784
     17 O           7.7210   40.6747    8.1977 O.2     1  UNL1       -0.2748
     18 H           8.1023   41.7878   11.1497 H       1  UNL1        0.1553
     19 C           5.9358   41.3982    9.6359 C.3     1  UNL1        0.0691
     20 C           4.9907   40.8265    8.5561 C.3     1  UNL1        0.0086
     21 C           3.5344   41.2065    8.8673 C.3     1  UNL1        0.0005
     22 C           3.1451   40.6318   10.2382 C.3     1  UNL1        0.0000
     23 C           4.0691   41.1999   11.3272 C.3     1  UNL1        0.0005
     24 C           3.9399   42.7319   11.3547 C.3     1  UNL1        0.0000
     25 C           4.3311   43.3172    9.9878 C.3     1  UNL1        0.0005
     26 C           3.4064   42.7387    8.9048 C.3     1  UNL1        0.0000
     27 C           5.7843   42.9314    9.6699 C.3     1  UNL1        0.0086
     28 C           5.5226   40.8196   11.0041 C.3     1  UNL1        0.0086
     29 C          10.2978   41.0989   12.7518 C.1     1  UNL1        0.1019
     30 N          10.0753   41.4911   13.8175 N.1     1  UNL1       -0.1908
@<TRIPOS>BOND
     1     1    16    1
     2     1     6   ar
     3    19    15    1
     4    19    20    1
     5    21    20    1
     6    21    22    1
     7    23    22    1
     8    23    24    1
     9    23    28    1
    10    25    24    1
    11    25    26    1
    12    25    27    1
    13    26    21    1
    14    27    19    1
    15    28    19    1
    16     2     6   ar
    17     2     7    1
    18     3     5   ar
    19     4     3    1
    20     5    29    1
    21     7    13   am
    22     8    13    1
    23     8     9    1
    24     9    10    1
    25    10    11    1
    26    11    12    1
    27    12    13    1
    28    16    15   am
    29    15    17    2
    30     2     3   ar
    31     5     1   ar
    32     7    14    2
    33    29    30    3
    34    16    18    1
@<TRIPOS>MOLECULE
MolPort-001-980-411 5007089 CHEMBL1312536 CSSS00121700322 LN01130057 MCULE-6991564078 PubChem-3141658 ZINC000005007089
 30 34 0 0 0
SMALL
GASTEIGER

@<TRIPOS>ATOM
      1 C          11.0068   40.0367    9.8028 C.ar    1  UNL1        0.0903
      2 C          13.0810   38.8908   10.6300 C.ar    1  UNL1        0.0809
      3 C          12.3121   38.1000    9.7662 C.ar    1  UNL1       -0.0001
      4 C          12.6638   36.6943    9.3985 C.3     1  UNL1        0.0325
      5 C          11.1388   38.7352    9.3159 C.ar    1  UNL1        0.0847
      6 S          12.3004   40.3750   10.8141 S.2     1  UNL1       -0.0673
      7 C          14.3782   38.5244   11.2465 C.2     1  UNL1        0.2548
      8 C          15.8023   39.3731    9.3351 C.3     1  UNL1        0.0937
      9 C          16.8874   40.3948    9.6632 C.3     1  UNL1        0.0216
     10 C          18.1558   39.6777   10.1219 C.3     1  UNL1        0.0035
     11 C          17.8619   38.8026   11.3393 C.3     1  UNL1        0.0216
     12 C          16.7680   37.7918   11.0040 C.3     1  UNL1        0.0937
     13 N          15.5975   38.4945   10.4843 N.am    1  UNL1       -0.2757
     14 O          14.4097   38.2146   12.4690 O.2     1  UNL1       -0.2694
     15 C           9.6638   41.7054    8.4295 C.2     1  UNL1        0.2255
     16 N           9.9039   40.9296    9.6097 N.am    1  UNL1       -0.2784
     17 O          10.6011   41.9164    7.6115 O.2     1  UNL1       -0.2748
     18 H           9.2584   41.0174   10.3479 H       1  UNL1        0.1553
     19 C           8.3195   42.3506    8.2316 C.3     1  UNL1        0.0691
     20 C           7.1851   41.4821    8.8189 C.3     1  UNL1        0.0086
     21 C           5.8243   42.1602    8.5946 C.3     1  UNL1        0.0005
     22 C           5.8239   43.5318    9.2876 C.3     1  UNL1        0.0000
     23 C           6.9404   44.4139    8.7064 C.3     1  UNL1        0.0005
     24 C           6.7087   44.5984    7.1975 C.3     1  UNL1        0.0000
     25 C           6.7110   43.2312    6.4941 C.3     1  UNL1        0.0005
     26 C           5.5961   42.3541    7.0861 C.3     1  UNL1        0.0000
     27 C           8.0676   42.5467    6.7240 C.3     1  UNL1        0.0086
     28 C           8.2957   43.7249    8.9304 C.3     1  UNL1        0.0086
     29 C          10.1341   38.0608    8.5301 C.1     1  UNL1        0.1019
     30 N           9.3291   37.5230    7.8962 N.1     1  UNL1       -0.1908
@<TRIPOS>BOND
     1     1    16    1
     2     1     6   ar
     3    19    15    1
     4    19    20    1
     5    21    20    1
     6    21    22    1
     7    23    22    1
     8    23    24    1
     9    23    28    1
    10    25    24    1
    11    25    26    1
    12    25    27    1
    13    26    21    1
    14    27    19    1
    15    28    19    1
    16     2     6   ar
    17     2     7    1
    18     3     5   ar
    19     4     3    1
    20     5    29    1
    21     7    13   am
    22     8    13    1
    23     8     9    1
    24     9    10    1
    25    10    11    1
    26    11    12    1
    27    12    13    1
    28    16    15   am
    29    15    17    2
    30     2     3   ar
    31     5     1   ar
    32     7    14    2
    33    29    30    3
    34    16    18    1
@<TRIPOS>MOLECULE
MolPort-001-980-411 5007089 CHEMBL1312536 CSSS00121700322 LN01130057 MCULE-6991564078 PubChem-3141658 ZINC000005007089
 30 34 0 0 0
SMALL
GASTEIGER

@<TRIPOS>ATOM
      1 C          10.5838   42.2824    8.4402 C.ar    1  UNL1        0.0903
      2 C           8.4416   41.6610    9.5911 C.ar    1  UNL1        0.0809
      3 C           8.5261   41.1895    8.2747 C.ar    1  UNL1       -0.0001
      4 C           7.4345   40.4238    7.5986 C.3     1  UNL1        0.0325
      5 C           9.7197   41.5529    7.6219 C.ar    1  UNL1        0.0847
      6 S           9.8568   42.5135    9.9330 S.2     1  UNL1       -0.0673
      7 C           7.3340   41.4238   10.5471 C.2     1  UNL1        0.2548
      8 C           5.5030   42.2382    9.0025 C.3     1  UNL1        0.0937
      9 C           4.3451   41.2858    8.7170 C.3     1  UNL1        0.0216
     10 C           3.2925   41.4017    9.8180 C.3     1  UNL1        0.0035
     11 C           3.9116   41.0950   11.1807 C.3     1  UNL1        0.0216
     12 C           5.0752   42.0455   11.4516 C.3     1  UNL1        0.0937
     13 N           6.0245   41.9824   10.3431 N.am    1  UNL1       -0.2757
     14 O           7.5513   40.7264   11.5757 O.2     1  UNL1       -0.2694
     15 C          12.9816   42.1571    7.5982 C.2     1  UNL1        0.2255
     16 N          11.8359   42.8734    8.0744 N.am    1  UNL1       -0.2784
     17 O          13.0775   40.9150    7.7988 O.2     1  UNL1       -0.2748
     18 H          11.9158   43.8512    8.1568 H       1  UNL1        0.1553
     19 C          14.1107   42.9150    6.9555 C.3     1  UNL1        0.0691
     20 C          14.0068   42.8826    5.4147 C.3     1  UNL1        0.0086
     21 C          15.1764   43.6558    4.7852 C.3     1  UNL1        0.0005
     22 C          15.1336   45.1146    5.2661 C.3     1  UNL1        0.0000
     23 C          15.2479   45.1660    6.7980 C.3     1  UNL1        0.0005
     24 C          16.5741   44.5191    7.2306 C.3     1  UNL1        0.0000
     25 C          16.6251   43.0572    6.7572 C.3     1  UNL1        0.0005
     26 C          16.5037   43.0154    5.2254 C.3     1  UNL1        0.0000
     27 C          15.4514   42.2834    7.3780 C.3     1  UNL1        0.0086
     28 C          14.0777   44.3858    7.4174 C.3     1  UNL1        0.0086
     29 C           9.9594   41.2921    6.2232 C.1     1  UNL1        0.1019
     30 N          10.1501   41.0783    5.1021 N.1     1  UNL1       -0.1908
@<TRIPOS>BOND
     1     1    16    1
     2     1     6   ar
     3    19    15    1
     4    19    20    1
     5    21    20    1
     6    21    22    1
     7    23    22    1
     8    23    24    1
     9    23    28    1
    10    25    24    1
    11    25    26    1
    12    25    27    1
    13    26    21    1
    14    27    19    1
    15    28    19    1
    16     2     6   ar
    17     2     7    1
    18     3     5   ar
    19     4     3    1
    20     5    29    1
    21     7    13   am
    22     8    13    1
    23     8     9    1
    24     9    10    1
    25    10    11    1
    26    11    12    1
    27    12    13    1
    28    16    15   am
    29    15    17    2
    30     2     3   ar
    31     5     1   ar
    32     7    14    2
    33    29    30    3
    34    16    18    1
@<TRIPOS>MOLECULE
MolPort-001-980-411 5007089 CHEMBL1312536 CSSS00121700322 LN01130057 MCULE-6991564078 PubChem-3141658 ZINC000005007089
 30 34 0 0 0
SMALL
GASTEIGER

@<TRIPOS>ATOM
      1 C          12.2203   41.1860    8.3197 C.ar    1  UNL1        0.0903
      2 C          10.0091   41.0897    9.5035 C.ar    1  UNL1        0.0809
      3 C           9.9800   40.5326    8.2184 C.ar    1  UNL1       -0.0001
      4 C           8.7466   39.9691    7.5890 C.3     1  UNL1        0.0325
      5 C          11.2153   40.6024    7.5463 C.ar    1  UNL1        0.0847
      6 S          11.5732   41.6512    9.7946 S.2     1  UNL1       -0.0673
      7 C           8.8872   41.1436   10.4707 C.2     1  UNL1        0.2548
      8 C           7.2984   42.3695    8.9297 C.3     1  UNL1        0.0937
      9 C           5.9381   41.7301    8.6650 C.3     1  UNL1        0.0216
     10 C           4.9584   42.1141    9.7724 C.3     1  UNL1        0.0035
     11 C           5.4966   41.6780   11.1341 C.3     1  UNL1        0.0216
     12 C           6.8618   42.3139   11.3842 C.3     1  UNL1        0.0937
     13 N           7.7544   42.0066   10.2695 N.am    1  UNL1       -0.2757
     14 O           8.9361   40.4249   11.5064 O.2     1  UNL1       -0.2694
     15 C          13.9935   42.7057    7.3096 C.2     1  UNL1        0.2255
     16 N          13.5629   41.4832    7.9201 N.am    1  UNL1       -0.2784
     17 O          13.1502   43.4704    6.7652 O.2     1  UNL1       -0.2748
     18 H          14.2454   40.7914    8.0777 H       1  UNL1        0.1553
     19 C          15.4638   43.0133    7.2313 C.3     1  UNL1        0.0691
     20 C          15.7837   44.3969    7.8390 C.3     1  UNL1        0.0086
     21 C          17.2893   44.6884    7.7373 C.3     1  UNL1        0.0005
     22 C          18.0654   43.6059    8.5036 C.3     1  UNL1        0.0000
     23 C          17.7674   42.2224    7.9039 C.3     1  UNL1        0.0005
     24 C          18.1875   42.2087    6.4247 C.3     1  UNL1        0.0000
     25 C          17.4133   43.2864    5.6482 C.3     1  UNL1        0.0005
     26 C          17.7122   44.6649    6.2588 C.3     1  UNL1        0.0000
     27 C          15.9067   43.0025    5.7553 C.3     1  UNL1        0.0086
     28 C          16.2597   41.9430    8.0051 C.3     1  UNL1        0.0086
     29 C          11.3805   40.2142    6.1665 C.1     1  UNL1        0.1019
     30 N          11.5115   39.8983    5.0610 N.1     1  UNL1       -0.1908
@<TRIPOS>BOND
     1     1    16    1
     2     1     6   ar
     3    19    15    1
     4    19    20    1
     5    21    20    1
     6    21    22    1
     7    23    22    1
     8    23    24    1
     9    23    28    1
    10    25    24    1
    11    25    26    1
    12    25    27    1
    13    26    21    1
    14    27    19    1
    15    28    19    1
    16     2     6   ar
    17     2     7    1
    18     3     5   ar
    19     4     3    1
    20     5    29    1
    21     7    13   am
    22     8    13    1
    23     8     9    1
    24     9    10    1
    25    10    11    1
    26    11    12    1
    27    12    13    1
    28    16    15   am
    29    15    17    2
    30     2     3   ar
    31     5     1   ar
    32     7    14    2
    33    29    30    3
    34    16    18    1
@<TRIPOS>MOLECULE
MolPort-001-980-411 5007089 CHEMBL1312536 CSSS00121700322 LN01130057 MCULE-6991564078 PubChem-3141658 ZINC000005007089
 30 34 0 0 0
SMALL
GASTEIGER

@<TRIPOS>ATOM
      1 C           9.5114   41.0541    9.0465 C.ar    1  UNL1        0.0903
      2 C          11.9699   40.7505    8.6420 C.ar    1  UNL1        0.0809
      3 C          11.2815   41.2691    7.5376 C.ar    1  UNL1       -0.0001
      4 C          11.9322   41.5772    6.2274 C.3     1  UNL1        0.0325
      5 C           9.8991   41.4228    7.7572 C.ar    1  UNL1        0.0847
      6 S          10.8548   40.5009    9.8832 S.2     1  UNL1       -0.0673
      7 C          13.4279   40.5021    8.7395 C.2     1  UNL1        0.2548
      8 C          13.3490   39.5102   11.0658 C.3     1  UNL1        0.0937
      9 C          13.9464   38.1194   11.2605 C.3     1  UNL1        0.0216
     10 C          15.4519   38.2281   11.4959 C.3     1  UNL1        0.0035
     11 C          16.1244   38.9376   10.3218 C.3     1  UNL1        0.0216
     12 C          15.5123   40.3228   10.1287 C.3     1  UNL1        0.0937
     13 N          14.0628   40.2010    9.9944 N.am    1  UNL1       -0.2757
     14 O          14.1326   40.5732    7.6955 O.2     1  UNL1       -0.2694
     15 C           7.2853   42.1247    9.6566 C.2     1  UNL1        0.2255
     16 N           8.1813   41.0098    9.5752 N.am    1  UNL1       -0.2784
     17 O           7.7344   43.3018    9.5851 O.2     1  UNL1       -0.2748
     18 H           7.8562   40.1429    9.9099 H       1  UNL1        0.1553
     19 C           5.8272   41.8806    9.9336 C.3     1  UNL1        0.0691
     20 C           5.2209   40.8809    8.9241 C.3     1  UNL1        0.0086
     21 C           3.7304   40.6577    9.2249 C.3     1  UNL1        0.0005
     22 C           3.5816   40.0956   10.6473 C.3     1  UNL1        0.0000
     23 C           4.1698   41.0841   11.6667 C.3     1  UNL1        0.0005
     24 C           3.4252   42.4254   11.5618 C.3     1  UNL1        0.0000
     25 C           3.5714   42.9983   10.1425 C.3     1  UNL1        0.0005
     26 C           2.9866   42.0005    9.1299 C.3     1  UNL1        0.0000
     27 C           5.0616   43.2144    9.8354 C.3     1  UNL1        0.0086
     28 C           5.6582   41.3049   11.3541 C.3     1  UNL1        0.0086
     29 C           8.9780   41.8107    6.7165 C.1     1  UNL1        0.1019
     30 N           8.2428   42.1209    5.8785 N.1     1  UNL1       -0.1908
@<TRIPOS>BOND
     1     1    16    1
     2     1     6   ar
     3    19    15    1
     4    19    20    1
     5    21    20    1
     6    21    22    1
     7    23    22    1
     8    23    24    1
     9    23    28    1
    10    25    24    1
    11    25    26    1
    12    25    27    1
    13    26    21    1
    14    27    19    1
    15    28    19    1
    16     2     6   ar
    17     2     7    1
    18     3     5   ar
    19     4     3    1
    20     5    29    1
    21     7    13   am
    22     8    13    1
    23     8     9    1
    24     9    10    1
    25    10    11    1
    26    11    12    1
    27    12    13    1
    28    16    15   am
    29    15    17    2
    30     2     3   ar
    31     5     1   ar
    32     7    14    2
    33    29    30    3
    34    16    18    1
