@<TRIPOS>MOLECULE
MolPort-047-592-959 211499115 MCULE-4439733513 PubChem-76847709 ZINC000211499115
 25 26 0 0 0
SMALL
GASTEIGER

@<TRIPOS>ATOM
      1 C          12.1773   40.7403    8.7629 C.ar    1  UNL1        0.0000
      2 C          13.0313   41.5632    8.0277 C.ar    1  UNL1        0.0000
      3 C          14.4148   41.4762    8.1946 C.ar    1  UNL1        0.0000
      4 C          14.9327   40.5105    9.0816 C.ar    1  UNL1        0.0000
      5 C          12.7266   39.8224    9.6587 C.ar    1  UNL1        0.0000
      6 N          14.0753   39.7247    9.7939 N.ar    1  UNL1        0.0000
      7 B          10.6249   40.8476    8.5866 B       1  UNL1        0.0000
      8 O           9.8703   39.6408    8.2929 O.3     1  UNL1        0.0000
      9 O          10.0765   42.0218    7.9288 O.3     1  UNL1        0.0000
     10 C           9.4144   39.9046    6.9923 C.3     1  UNL1        0.0000
     11 C           9.5573   41.4646    6.7505 C.3     1  UNL1        0.0000
     12 C          10.4900   41.8239    5.5917 C.3     1  UNL1        0.0000
     13 C           8.2279   42.1563    6.4617 C.3     1  UNL1        0.0000
     14 C           7.9740   39.4085    6.9020 C.3     1  UNL1        0.0000
     15 C          10.2250   39.0544    6.0119 C.3     1  UNL1        0.0000
     16 O          13.6199   43.8068    6.6204 O.2     1  UNL1        0.0000
     17 C          14.8442   43.5508    6.7800 C.2     1  UNL1        0.0000
     18 N          15.2547   42.3300    7.4069 N.am    1  UNL1        0.0000
     19 H          16.1921   42.0543    7.2867 H       1  UNL1        0.0000
     20 C          15.8743   44.4678    6.2031 C.3     1  UNL1        0.0000
     21 F          16.8906   44.6723    7.1186 F       1  UNL1        0.0000
     22 F          16.4011   43.9021    5.0574 F       1  UNL1        0.0000
     23 F          15.3027   45.6875    5.8878 F       1  UNL1        0.0000
     24 O          16.3129   40.3348    9.2074 O.3     1  UNL1        0.0000
     25 C          16.8887   39.6288   10.2964 C.3     1  UNL1        0.0000
@<TRIPOS>BOND
     1     7     8    1
     2     7     1    1
     3     7     9    1
     4    10     8    1
     5    10    11    1
     6    10    14    1
     7    10    15    1
     8    11     9    1
     9    11    12    1
    10    11    13    1
    11     2     3   ar
    12     3    18    1
    13     4     6   ar
    14     4    24    1
    15     5     1   ar
    16    25    24    1
    17    20    17    1
    18    20    21    1
    19    20    22    1
    20    20    23    1
    21    18    17   am
    22     1     2   ar
    23     3     4   ar
    24     5     6   ar
    25    17    16    2
    26    18    19    1
@<TRIPOS>MOLECULE
MolPort-047-592-959 211499115 MCULE-4439733513 PubChem-76847709 ZINC000211499115
 25 26 0 0 0
SMALL
GASTEIGER

@<TRIPOS>ATOM
      1 C          12.6128   40.3653    9.7388 C.ar    1  UNL1        0.0000
      2 C          13.0443   41.0767    8.6187 C.ar    1  UNL1        0.0000
      3 C          14.4077   41.2243    8.3564 C.ar    1  UNL1        0.0000
      4 C          15.3361   40.6015    9.2154 C.ar    1  UNL1        0.0000
      5 C          13.5631   39.7947   10.5861 C.ar    1  UNL1        0.0000
      6 N          14.8874   39.9191   10.3076 N.ar    1  UNL1        0.0000
      7 B          11.0838   40.2119   10.0412 B       1  UNL1        0.0000
      8 O          10.1627   40.0651    8.9267 O.3     1  UNL1        0.0000
      9 O          10.5106   40.9679   11.1421 O.3     1  UNL1        0.0000
     10 C           9.4283   41.2577    9.0109 C.3     1  UNL1        0.0000
     11 C           9.6629   41.8540   10.4606 C.3     1  UNL1        0.0000
     12 C          10.3113   43.2402   10.4574 C.3     1  UNL1        0.0000
     13 C           8.3798   41.9824   11.2769 C.3     1  UNL1        0.0000
     14 C           7.9679   40.9179    8.7262 C.3     1  UNL1        0.0000
     15 C           9.8817   42.1876    7.8836 C.3     1  UNL1        0.0000
     16 O          13.2068   43.6555    7.2663 O.2     1  UNL1        0.0000
     17 C          14.2857   43.2212    6.7794 C.2     1  UNL1        0.0000
     18 N          14.8054   41.9497    7.1857 N.am    1  UNL1        0.0000
     19 H          15.4932   41.5397    6.6130 H       1  UNL1        0.0000
     20 C          14.9625   43.9799    5.6834 C.3     1  UNL1        0.0000
     21 F          14.6941   45.3308    5.8087 F       1  UNL1        0.0000
     22 F          16.3274   43.7780    5.7616 F       1  UNL1        0.0000
     23 F          14.5072   43.5446    4.4518 F       1  UNL1        0.0000
     24 O          16.7036   40.6531    8.9344 O.3     1  UNL1        0.0000
     25 C          17.4112   41.8808    8.8460 C.3     1  UNL1        0.0000
@<TRIPOS>BOND
     1     7     8    1
     2     7     1    1
     3     7     9    1
     4    10     8    1
     5    10    11    1
     6    10    14    1
     7    10    15    1
     8    11     9    1
     9    11    12    1
    10    11    13    1
    11     2     3   ar
    12     3    18    1
    13     4     6   ar
    14     4    24    1
    15     5     1   ar
    16    25    24    1
    17    20    17    1
    18    20    21    1
    19    20    22    1
    20    20    23    1
    21    18    17   am
    22     1     2   ar
    23     3     4   ar
    24     5     6   ar
    25    17    16    2
    26    18    19    1
@<TRIPOS>MOLECULE
MolPort-047-592-959 211499115 MCULE-4439733513 PubChem-76847709 ZINC000211499115
 25 26 0 0 0
SMALL
GASTEIGER

@<TRIPOS>ATOM
      1 C          12.5338   40.4415    7.8004 C.ar    1  UNL1        0.0000
      2 C          13.7661   41.0935    7.7442 C.ar    1  UNL1        0.0000
      3 C          14.7503   40.8297    8.6988 C.ar    1  UNL1        0.0000
      4 C          14.4937   39.8593    9.6888 C.ar    1  UNL1        0.0000
      5 C          12.3038   39.5145    8.8175 C.ar    1  UNL1        0.0000
      6 N          13.2777   39.2429    9.7257 N.ar    1  UNL1        0.0000
      7 B          11.4244   40.7478    6.7383 B       1  UNL1        0.0000
      8 O          10.4614   41.7998    7.0177 O.3     1  UNL1        0.0000
      9 O          10.8416   39.6410    5.9983 O.3     1  UNL1        0.0000
     10 C           9.2717   41.0659    7.1398 C.3     1  UNL1        0.0000
     11 C           9.5235   39.6474    6.4787 C.3     1  UNL1        0.0000
     12 C           9.3557   38.4778    7.4511 C.3     1  UNL1        0.0000
     13 C           8.6020   39.3586    5.2969 C.3     1  UNL1        0.0000
     14 C           8.1676   41.8651    6.4533 C.3     1  UNL1        0.0000
     15 C           8.8948   40.9949    8.6210 C.3     1  UNL1        0.0000
     16 O          15.3892   43.1562    7.0493 O.2     1  UNL1        0.0000
     17 C          16.2299   42.7399    7.8918 C.2     1  UNL1        0.0000
     18 N          16.0071   41.5110    8.5931 N.am    1  UNL1        0.0000
     19 H          16.7820   41.0997    9.0399 H       1  UNL1        0.0000
     20 C          17.5228   43.4688    8.0708 C.3     1  UNL1        0.0000
     21 F          17.6819   44.4026    7.0631 F       1  UNL1        0.0000
     22 F          17.5195   44.1142    9.2928 F       1  UNL1        0.0000
     23 F          18.5808   42.5786    8.0284 F       1  UNL1        0.0000
     24 O          15.4867   39.5056   10.6056 O.3     1  UNL1        0.0000
     25 C          15.2220   38.6669   11.7202 C.3     1  UNL1        0.0000
@<TRIPOS>BOND
     1     7     8    1
     2     7     1    1
     3     7     9    1
     4    10     8    1
     5    10    11    1
     6    10    14    1
     7    10    15    1
     8    11     9    1
     9    11    12    1
    10    11    13    1
    11     2     3   ar
    12     3    18    1
    13     4     6   ar
    14     4    24    1
    15     5     1   ar
    16    25    24    1
    17    20    17    1
    18    20    21    1
    19    20    22    1
    20    20    23    1
    21    18    17   am
    22     1     2   ar
    23     3     4   ar
    24     5     6   ar
    25    17    16    2
    26    18    19    1
@<TRIPOS>MOLECULE
MolPort-047-592-959 211499115 MCULE-4439733513 PubChem-76847709 ZINC000211499115
 25 26 0 0 0
SMALL
GASTEIGER

@<TRIPOS>ATOM
      1 C          11.7593   40.9523    8.6169 C.ar    1  UNL1        0.0000
      2 C          12.7678   41.7747    8.1132 C.ar    1  UNL1        0.0000
      3 C          14.1110   41.4468    8.3073 C.ar    1  UNL1        0.0000
      4 C          14.4276   40.2476    8.9776 C.ar    1  UNL1        0.0000
      5 C          12.1129   39.7926    9.3074 C.ar    1  UNL1        0.0000
      6 N          13.4225   39.4664    9.4669 N.ar    1  UNL1        0.0000
      7 B          10.2527   41.3273    8.4118 B       1  UNL1        0.0000
      8 O           9.9055   42.7181    8.1727 O.3     1  UNL1        0.0000
      9 O           9.2466   40.6282    9.1935 O.3     1  UNL1        0.0000
     10 C           9.1844   43.0311    9.3351 C.3     1  UNL1        0.0000
     11 C           8.7594   41.6607   10.0089 C.3     1  UNL1        0.0000
     12 C           9.3198   41.4701   11.4201 C.3     1  UNL1        0.0000
     13 C           7.2476   41.4845   10.1200 C.3     1  UNL1        0.0000
     14 C           7.9964   43.8940    8.9192 C.3     1  UNL1        0.0000
     15 C          10.0623   43.9089   10.2294 C.3     1  UNL1        0.0000
     16 O          13.9389   43.0705    5.8834 O.2     1  UNL1        0.0000
     17 C          14.9262   43.2067    6.6558 C.2     1  UNL1        0.0000
     18 N          15.1135   42.3123    7.7588 N.am    1  UNL1        0.0000
     19 H          16.0053   42.2902    8.1752 H       1  UNL1        0.0000
     20 C          15.9722   44.2295    6.3481 C.3     1  UNL1        0.0000
     21 F          16.8330   43.7479    5.3786 F       1  UNL1        0.0000
     22 F          15.3645   45.3813    5.8854 F       1  UNL1        0.0000
     23 F          16.6995   44.5240    7.4873 F       1  UNL1        0.0000
     24 O          15.7581   39.8433    9.1119 O.3     1  UNL1        0.0000
     25 C          16.1771   38.9504   10.1332 C.3     1  UNL1        0.0000
@<TRIPOS>BOND
     1     7     8    1
     2     7     1    1
     3     7     9    1
     4    10     8    1
     5    10    11    1
     6    10    14    1
     7    10    15    1
     8    11     9    1
     9    11    12    1
    10    11    13    1
    11     2     3   ar
    12     3    18    1
    13     4     6   ar
    14     4    24    1
    15     5     1   ar
    16    25    24    1
    17    20    17    1
    18    20    21    1
    19    20    22    1
    20    20    23    1
    21    18    17   am
    22     1     2   ar
    23     3     4   ar
    24     5     6   ar
    25    17    16    2
    26    18    19    1
@<TRIPOS>MOLECULE
MolPort-047-592-959 211499115 MCULE-4439733513 PubChem-76847709 ZINC000211499115
 25 26 0 0 0
SMALL
GASTEIGER

@<TRIPOS>ATOM
      1 C          12.6039   41.4112    6.9826 C.ar    1  UNL1        0.0000
      2 C          13.3010   40.7357    7.9849 C.ar    1  UNL1        0.0000
      3 C          14.6168   41.0877    8.2918 C.ar    1  UNL1        0.0000
      4 C          15.2091   42.1673    7.6053 C.ar    1  UNL1        0.0000
      5 C          13.2370   42.4502    6.2996 C.ar    1  UNL1        0.0000
      6 N          14.5080   42.8049    6.6244 N.ar    1  UNL1        0.0000
      7 B          11.1329   41.0070    6.6281 B       1  UNL1        0.0000
      8 O          10.0395   41.7329    7.2523 O.3     1  UNL1        0.0000
      9 O          10.8247   39.6014    6.4253 O.3     1  UNL1        0.0000
     10 C           9.4635   40.7365    8.0550 C.3     1  UNL1        0.0000
     11 C           9.9848   39.3393    7.5180 C.3     1  UNL1        0.0000
     12 C          10.7742   38.5379    8.5556 C.3     1  UNL1        0.0000
     13 C           8.8661   38.4235    7.0289 C.3     1  UNL1        0.0000
     14 C           7.9482   40.8923    7.9625 C.3     1  UNL1        0.0000
     15 C           9.8365   41.0119    9.5132 C.3     1  UNL1        0.0000
     16 O          13.4751   40.0789   10.7859 O.2     1  UNL1        0.0000
     17 C          14.6551   39.7668   10.4697 C.2     1  UNL1        0.0000
     18 N          15.2892   40.3772    9.3396 N.am    1  UNL1        0.0000
     19 H          16.2689   40.3024    9.2772 H       1  UNL1        0.0000
     20 C          15.4393   38.8468   11.3493 C.3     1  UNL1        0.0000
     21 F          16.7410   39.2994   11.4649 F       1  UNL1        0.0000
     22 F          14.8587   38.8061   12.6028 F       1  UNL1        0.0000
     23 F          15.4537   37.5721   10.8120 F       1  UNL1        0.0000
     24 O          16.4911   42.6042    7.9474 O.3     1  UNL1        0.0000
     25 C          16.9148   43.9428    7.7361 C.3     1  UNL1        0.0000
@<TRIPOS>BOND
     1     7     8    1
     2     7     1    1
     3     7     9    1
     4    10     8    1
     5    10    11    1
     6    10    14    1
     7    10    15    1
     8    11     9    1
     9    11    12    1
    10    11    13    1
    11     2     3   ar
    12     3    18    1
    13     4     6   ar
    14     4    24    1
    15     5     1   ar
    16    25    24    1
    17    20    17    1
    18    20    21    1
    19    20    22    1
    20    20    23    1
    21    18    17   am
    22     1     2   ar
    23     3     4   ar
    24     5     6   ar
    25    17    16    2
    26    18    19    1
@<TRIPOS>MOLECULE
MolPort-047-592-959 211499115 MCULE-4439733513 PubChem-76847709 ZINC000211499115
 25 26 0 0 0
SMALL
GASTEIGER

@<TRIPOS>ATOM
      1 C          12.7161   39.6047    8.7189 C.ar    1  UNL1        0.0000
      2 C          13.1611   40.6689    7.9339 C.ar    1  UNL1        0.0000
      3 C          12.6820   41.9613    8.1568 C.ar    1  UNL1        0.0000
      4 C          11.7798   42.1777    9.2183 C.ar    1  UNL1        0.0000
      5 C          11.7941   39.8528    9.7363 C.ar    1  UNL1        0.0000
      6 N          11.3548   41.1184    9.9648 N.ar    1  UNL1        0.0000
      7 B          13.2423   38.1525    8.4597 B       1  UNL1        0.0000
      8 O          12.6094   37.0456    9.1569 O.3     1  UNL1        0.0000
      9 O          14.6691   37.9502    8.2720 O.3     1  UNL1        0.0000
     10 C          13.6491   36.6085    9.9916 C.3     1  UNL1        0.0000
     11 C          14.9987   37.2084    9.4162 C.3     1  UNL1        0.0000
     12 C          15.7298   38.1281   10.3969 C.3     1  UNL1        0.0000
     13 C          16.0055   36.1405    8.9977 C.3     1  UNL1        0.0000
     14 C          13.6206   35.0826    9.9988 C.3     1  UNL1        0.0000
     15 C          13.3413   37.0518   11.4233 C.3     1  UNL1        0.0000
     16 O          15.4673   42.5809    7.5245 O.2     1  UNL1        0.0000
     17 C          14.5415   43.1962    6.9293 C.2     1  UNL1        0.0000
     18 N          13.1787   43.0268    7.3366 N.am    1  UNL1        0.0000
     19 H          12.5287   43.6984    7.0273 H       1  UNL1        0.0000
     20 C          14.8779   44.2004    5.8742 C.3     1  UNL1        0.0000
     21 F          15.6661   43.6155    4.8998 F       1  UNL1        0.0000
     22 F          13.7120   44.6666    5.2970 F       1  UNL1        0.0000
     23 F          15.5675   45.2627    6.4308 F       1  UNL1        0.0000
     24 O          11.3485   43.4702    9.5267 O.3     1  UNL1        0.0000
     25 C          10.1679   43.7142   10.2766 C.3     1  UNL1        0.0000
@<TRIPOS>BOND
     1     7     8    1
     2     7     1    1
     3     7     9    1
     4    10     8    1
     5    10    11    1
     6    10    14    1
     7    10    15    1
     8    11     9    1
     9    11    12    1
    10    11    13    1
    11     2     3   ar
    12     3    18    1
    13     4     6   ar
    14     4    24    1
    15     5     1   ar
    16    25    24    1
    17    20    17    1
    18    20    21    1
    19    20    22    1
    20    20    23    1
    21    18    17   am
    22     1     2   ar
    23     3     4   ar
    24     5     6   ar
    25    17    16    2
    26    18    19    1
@<TRIPOS>MOLECULE
MolPort-047-592-959 211499115 MCULE-4439733513 PubChem-76847709 ZINC000211499115
 25 26 0 0 0
SMALL
GASTEIGER

@<TRIPOS>ATOM
      1 C           7.6452   42.5665    6.8005 C.ar    1  UNL1        0.0000
      2 C           7.1594   42.0692    8.0103 C.ar    1  UNL1        0.0000
      3 C           6.1315   42.7304    8.6854 C.ar    1  UNL1        0.0000
      4 C           5.5626   43.8794    8.0989 C.ar    1  UNL1        0.0000
      5 C           7.0815   43.7274    6.2703 C.ar    1  UNL1        0.0000
      6 N           6.0621   44.3486    6.9198 N.ar    1  UNL1        0.0000
      7 B           8.8080   41.8331    6.0503 B       1  UNL1        0.0000
      8 O           8.4843   40.7040    5.1944 O.3     1  UNL1        0.0000
      9 O          10.0833   41.6711    6.7280 O.3     1  UNL1        0.0000
     10 C           9.0923   39.6449    5.8853 C.3     1  UNL1        0.0000
     11 C          10.1349   40.2793    6.8968 C.3     1  UNL1        0.0000
     12 C           9.8419   39.9571    8.3639 C.3     1  UNL1        0.0000
     13 C          11.5729   39.8378    6.6394 C.3     1  UNL1        0.0000
     14 C           9.7369   38.7304    4.8474 C.3     1  UNL1        0.0000
     15 C           7.9994   38.8192    6.5673 C.3     1  UNL1        0.0000
     16 O           3.6239   41.3022    9.1473 O.2     1  UNL1        0.0000
     17 C           4.4919   41.3485   10.0606 C.2     1  UNL1        0.0000
     18 N           5.6529   42.1750    9.9172 N.am    1  UNL1        0.0000
     19 H           6.1651   42.3788   10.7329 H       1  UNL1        0.0000
     20 C           4.2491   40.6330   11.3506 C.3     1  UNL1        0.0000
     21 F           3.6033   39.4337   11.1112 F       1  UNL1        0.0000
     22 F           5.4587   40.3826   11.9703 F       1  UNL1        0.0000
     23 F           3.4619   41.4077   12.1836 F       1  UNL1        0.0000
     24 O           4.4743   44.5150    8.7014 O.3     1  UNL1        0.0000
     25 C           3.3743   45.0053    7.9495 C.3     1  UNL1        0.0000
@<TRIPOS>BOND
     1     7     8    1
     2     7     1    1
     3     7     9    1
     4    10     8    1
     5    10    11    1
     6    10    14    1
     7    10    15    1
     8    11     9    1
     9    11    12    1
    10    11    13    1
    11     2     3   ar
    12     3    18    1
    13     4     6   ar
    14     4    24    1
    15     5     1   ar
    16    25    24    1
    17    20    17    1
    18    20    21    1
    19    20    22    1
    20    20    23    1
    21    18    17   am
    22     1     2   ar
    23     3     4   ar
    24     5     6   ar
    25    17    16    2
    26    18    19    1
@<TRIPOS>MOLECULE
MolPort-047-592-959 211499115 MCULE-4439733513 PubChem-76847709 ZINC000211499115
 25 26 0 0 0
SMALL
GASTEIGER

@<TRIPOS>ATOM
      1 C          12.2249   39.8885    8.6499 C.ar    1  UNL1        0.0000
      2 C          12.8141   40.9888    8.0260 C.ar    1  UNL1        0.0000
      3 C          12.3993   41.3865    6.7535 C.ar    1  UNL1        0.0000
      4 C          11.3437   40.6872    6.1336 C.ar    1  UNL1        0.0000
      5 C          11.2083   39.1989    7.9884 C.ar    1  UNL1        0.0000
      6 N          10.7912   39.6103    6.7622 N.ar    1  UNL1        0.0000
      7 B          12.7000   39.4333   10.0711 B       1  UNL1        0.0000
      8 O          13.9289   39.9923   10.6090 O.3     1  UNL1        0.0000
      9 O          12.4986   38.0487   10.4643 O.3     1  UNL1        0.0000
     10 C          14.7578   38.8609   10.6488 C.3     1  UNL1        0.0000
     11 C          13.8208   37.5866   10.5457 C.3     1  UNL1        0.0000
     12 C          14.1053   36.7120    9.3225 C.3     1  UNL1        0.0000
     13 C          13.9128   36.6679   11.7608 C.3     1  UNL1        0.0000
     14 C          15.5543   38.9216   11.9492 C.3     1  UNL1        0.0000
     15 C          15.7782   38.9663    9.5135 C.3     1  UNL1        0.0000
     16 O          15.1158   42.3735    7.1870 O.2     1  UNL1        0.0000
     17 C          14.4040   42.8855    6.2808 C.2     1  UNL1        0.0000
     18 N          13.0214   42.5321    6.1573 N.am    1  UNL1        0.0000
     19 H          12.4506   43.1256    5.6178 H       1  UNL1        0.0000
     20 C          14.9734   43.9575    5.4082 C.3     1  UNL1        0.0000
     21 F          14.3611   45.1663    5.6845 F       1  UNL1        0.0000
     22 F          16.3301   44.0697    5.6465 F       1  UNL1        0.0000
     23 F          14.7690   43.6453    4.0761 F       1  UNL1        0.0000
     24 O          10.8433   41.1115    4.9003 O.3     1  UNL1        0.0000
     25 C          10.5462   40.2016    3.8517 C.3     1  UNL1        0.0000
@<TRIPOS>BOND
     1     7     8    1
     2     7     1    1
     3     7     9    1
     4    10     8    1
     5    10    11    1
     6    10    14    1
     7    10    15    1
     8    11     9    1
     9    11    12    1
    10    11    13    1
    11     2     3   ar
    12     3    18    1
    13     4     6   ar
    14     4    24    1
    15     5     1   ar
    16    25    24    1
    17    20    17    1
    18    20    21    1
    19    20    22    1
    20    20    23    1
    21    18    17   am
    22     1     2   ar
    23     3     4   ar
    24     5     6   ar
    25    17    16    2
    26    18    19    1
@<TRIPOS>MOLECULE
MolPort-047-592-959 211499115 MCULE-4439733513 PubChem-76847709 ZINC000211499115
 25 26 0 0 0
SMALL
GASTEIGER

@<TRIPOS>ATOM
      1 C          13.5952   39.0595   10.6385 C.ar    1  UNL1        0.0000
      2 C          14.4526   39.8592    9.8821 C.ar    1  UNL1        0.0000
      3 C          15.8273   39.8510   10.1265 C.ar    1  UNL1        0.0000
      4 C          16.3361   38.9856   11.1164 C.ar    1  UNL1        0.0000
      5 C          14.1327   38.2439   11.6347 C.ar    1  UNL1        0.0000
      6 N          15.4749   38.2208   11.8467 N.ar    1  UNL1        0.0000
      7 B          12.0516   39.0794   10.3743 B       1  UNL1        0.0000
      8 O          11.5432   38.4660    9.1589 O.3     1  UNL1        0.0000
      9 O          11.2914   40.2546   10.7656 O.3     1  UNL1        0.0000
     10 C          11.0507   39.5824    8.4660 C.3     1  UNL1        0.0000
     11 C          10.8934   40.7577    9.5179 C.3     1  UNL1        0.0000
     12 C          11.7449   41.9880    9.1967 C.3     1  UNL1        0.0000
     13 C           9.4574   41.2548    9.6594 C.3     1  UNL1        0.0000
     14 C           9.7323   39.1732    7.8154 C.3     1  UNL1        0.0000
     15 C          12.0132   39.9071    7.3218 C.3     1  UNL1        0.0000
     16 O          15.0141   41.7983    8.1046 O.2     1  UNL1        0.0000
     17 C          16.2248   41.7270    8.4497 C.2     1  UNL1        0.0000
     18 N          16.6722   40.6766    9.3146 N.am    1  UNL1        0.0000
     19 H          17.6413   40.5074    9.3547 H       1  UNL1        0.0000
     20 C          17.2212   42.6704    7.8563 C.3     1  UNL1        0.0000
     21 F          17.5321   43.6634    8.7674 F       1  UNL1        0.0000
     22 F          18.3708   41.9766    7.5295 F       1  UNL1        0.0000
     23 F          16.7019   43.2554    6.7153 F       1  UNL1        0.0000
     24 O          17.7135   38.8855   11.3272 O.3     1  UNL1        0.0000
     25 C          18.4869   37.8283   10.7795 C.3     1  UNL1        0.0000
@<TRIPOS>BOND
     1     7     8    1
     2     7     1    1
     3     7     9    1
     4    10     8    1
     5    10    11    1
     6    10    14    1
     7    10    15    1
     8    11     9    1
     9    11    12    1
    10    11    13    1
    11     2     3   ar
    12     3    18    1
    13     4     6   ar
    14     4    24    1
    15     5     1   ar
    16    25    24    1
    17    20    17    1
    18    20    21    1
    19    20    22    1
    20    20    23    1
    21    18    17   am
    22     1     2   ar
    23     3     4   ar
    24     5     6   ar
    25    17    16    2
    26    18    19    1
@<TRIPOS>MOLECULE
MolPort-047-592-959 211499115 MCULE-4439733513 PubChem-76847709 ZINC000211499115
 25 26 0 0 0
SMALL
GASTEIGER

@<TRIPOS>ATOM
      1 C          12.6708   39.4029    7.8630 C.ar    1  UNL1        0.0000
      2 C          13.2189   40.5423    7.2728 C.ar    1  UNL1        0.0000
      3 C          12.4027   41.4509    6.5963 C.ar    1  UNL1        0.0000
      4 C          11.0122   41.2209    6.5629 C.ar    1  UNL1        0.0000
      5 C          11.2945   39.1908    7.7765 C.ar    1  UNL1        0.0000
      6 N          10.5038   40.0950    7.1407 N.ar    1  UNL1        0.0000
      7 B          13.5880   38.3760    8.6094 B       1  UNL1        0.0000
      8 O          13.1035   37.0198    8.8043 O.3     1  UNL1        0.0000
      9 O          14.3985   38.8435    9.7213 O.3     1  UNL1        0.0000
     10 C          12.9643   36.9695   10.1997 C.3     1  UNL1        0.0000
     11 C          13.8067   38.1702   10.8005 C.3     1  UNL1        0.0000
     12 C          12.9672   39.1723   11.5962 C.3     1  UNL1        0.0000
     13 C          14.9286   37.7164   11.7304 C.3     1  UNL1        0.0000
     14 C          13.4525   35.5988   10.6600 C.3     1  UNL1        0.0000
     15 C          11.4743   37.0332   10.5415 C.3     1  UNL1        0.0000
     16 O          15.0079   42.6142    7.2298 O.2     1  UNL1        0.0000
     17 C          14.3498   43.0566    6.2494 C.2     1  UNL1        0.0000
     18 N          13.0065   42.6157    6.0189 N.am    1  UNL1        0.0000
     19 H          12.4515   43.1582    5.4131 H       1  UNL1        0.0000
     20 C          14.9297   44.1372    5.3946 C.3     1  UNL1        0.0000
     21 F          14.2545   45.3245    5.6113 F       1  UNL1        0.0000
     22 F          16.2636   44.3075    5.7137 F       1  UNL1        0.0000
     23 F          14.8208   43.7968    4.0582 F       1  UNL1        0.0000
     24 O          10.1558   42.1534    5.9724 O.3     1  UNL1        0.0000
     25 C           8.7510   42.1241    6.1758 C.3     1  UNL1        0.0000
@<TRIPOS>BOND
     1     7     8    1
     2     7     1    1
     3     7     9    1
     4    10     8    1
     5    10    11    1
     6    10    14    1
     7    10    15    1
     8    11     9    1
     9    11    12    1
    10    11    13    1
    11     2     3   ar
    12     3    18    1
    13     4     6   ar
    14     4    24    1
    15     5     1   ar
    16    25    24    1
    17    20    17    1
    18    20    21    1
    19    20    22    1
    20    20    23    1
    21    18    17   am
    22     1     2   ar
    23     3     4   ar
    24     5     6   ar
    25    17    16    2
    26    18    19    1
