@<TRIPOS>MOLECULE
MolPort-002-604-220 2379556 CSSS00132751994 LN00663321 MCULE-5847717623 PubChem-1987692 ZINC000002379556 ZINC02379556
 22 24 0 0 0
SMALL
GASTEIGER

@<TRIPOS>ATOM
      1 C          13.8686   41.9363    6.9835 C.ar    1  UNL1        0.1568
      2 C          13.8648   41.0058    8.0104 C.ar    1  UNL1        0.0689
      3 C          14.7633   40.6699    9.0181 C.ar    1  UNL1        0.0074
      4 C          14.4107   39.5968    9.8546 C.ar    1  UNL1        0.0179
      5 C          15.2547   39.2096   10.8979 C.ar    1  UNL1        0.0015
      6 C          14.8980   38.1392   11.7239 C.ar    1  UNL1        0.0001
      7 C          13.6986   37.4509   11.5104 C.ar    1  UNL1        0.0015
      8 C          12.8447   37.8261   10.4684 C.ar    1  UNL1        0.0192
      9 C          13.1856   38.8943    9.6351 C.ar    1  UNL1        0.0829
     10 C          12.7105   40.3019    7.8243 C.ar    1  UNL1        0.1621
     11 N          12.0565   40.7628    6.7467 N.ar    1  UNL1       -0.2329
     12 N          12.7647   41.7575    6.2173 N.ar    1  UNL1       -0.1527
     13 N          12.3550   39.2554    8.6116 N.ar    1  UNL1       -0.2268
     14 C          14.6944   44.1581    6.0388 C.2     1  UNL1        0.2277
     15 C          15.8054   45.1445    6.0253 C.3     1  UNL1        0.0950
     16 N          14.8927   42.8857    6.6619 N.am    1  UNL1       -0.2679
     17 O          13.6149   44.4343    5.4534 O.2     1  UNL1       -0.2747
     18 H          15.8180   42.6396    6.8909 H       1  UNL1        0.1563
     19 C          10.7979   40.2403    6.2218 C.3     1  UNL1        0.1292
     20 C          10.7047   40.4046    4.7104 C.3     1  UNL1        0.0264
     21 C           9.5563   38.7667    3.2230 C.3     1  UNL1        0.0001
     22 C          10.8124   39.0552    4.0235 C.3     1  UNL1        0.0021
@<TRIPOS>BOND
     1    21    22    1
     2    22    20    1
     3    20    19    1
     4    19    11    1
     5     1    16    1
     6     1     2   ar
     7    15    14    1
     8     3     4   ar
     9     5     6   ar
    10     7     8   ar
    11     9    13   ar
    12     9     4   ar
    13    10    11   ar
    14    10     2   ar
    15    11    12   ar
    16    16    14   am
    17     1    12   ar
    18    14    17    2
    19     2     3   ar
    20     4     5   ar
    21     6     7   ar
    22     8     9   ar
    23    10    13   ar
    24    16    18    1
@<TRIPOS>MOLECULE
MolPort-002-604-220 2379556 CSSS00132751994 LN00663321 MCULE-5847717623 PubChem-1987692 ZINC000002379556 ZINC02379556
 22 24 0 0 0
SMALL
GASTEIGER

@<TRIPOS>ATOM
      1 C          14.0185   42.2883    7.2956 C.ar    1  UNL1        0.1568
      2 C          13.7624   41.1885    8.0990 C.ar    1  UNL1        0.0689
      3 C          14.3593   40.6606    9.2395 C.ar    1  UNL1        0.0074
      4 C          13.8253   39.4612    9.7412 C.ar    1  UNL1        0.0179
      5 C          14.3617   38.8774   10.8910 C.ar    1  UNL1        0.0015
      6 C          13.8265   37.6826   11.3822 C.ar    1  UNL1        0.0001
      7 C          12.7552   37.0659   10.7266 C.ar    1  UNL1        0.0015
      8 C          12.2092   37.6379    9.5731 C.ar    1  UNL1        0.0192
      9 C          12.7314   38.8320    9.0703 C.ar    1  UNL1        0.0829
     10 C          12.7274   40.5508    7.4790 C.ar    1  UNL1        0.1621
     11 N          12.3806   41.2097    6.3624 N.ar    1  UNL1       -0.2329
     12 N          13.1744   42.2703    6.2350 N.ar    1  UNL1       -0.1527
     13 N          12.2033   39.3864    7.9382 N.ar    1  UNL1       -0.2268
     14 C          16.4561   42.9838    7.5870 C.2     1  UNL1        0.2277
     15 C          17.4375   44.0906    7.4483 C.3     1  UNL1        0.0950
     16 N          15.0600   43.2612    7.4439 N.am    1  UNL1       -0.2679
     17 O          16.8628   41.8301    7.8837 O.2     1  UNL1       -0.2747
     18 H          14.7899   44.2079    7.4475 H       1  UNL1        0.1563
     19 C          11.3327   40.8131    5.4257 C.3     1  UNL1        0.1292
     20 C          10.0078   41.4965    5.7380 C.3     1  UNL1        0.0264
     21 C           7.7574   41.1337    6.7470 C.3     1  UNL1        0.0001
     22 C           8.9502   40.4657    6.0894 C.3     1  UNL1        0.0021
@<TRIPOS>BOND
     1    21    22    1
     2    22    20    1
     3    20    19    1
     4    19    11    1
     5     1    16    1
     6     1     2   ar
     7    15    14    1
     8     3     4   ar
     9     5     6   ar
    10     7     8   ar
    11     9    13   ar
    12     9     4   ar
    13    10    11   ar
    14    10     2   ar
    15    11    12   ar
    16    16    14   am
    17     1    12   ar
    18    14    17    2
    19     2     3   ar
    20     4     5   ar
    21     6     7   ar
    22     8     9   ar
    23    10    13   ar
    24    16    18    1
@<TRIPOS>MOLECULE
MolPort-002-604-220 2379556 CSSS00132751994 LN00663321 MCULE-5847717623 PubChem-1987692 ZINC000002379556 ZINC02379556
 22 24 0 0 0
SMALL
GASTEIGER

@<TRIPOS>ATOM
      1 C          12.8819   40.0820    8.5140 C.ar    1  UNL1        0.1568
      2 C          13.7663   41.0121    7.9911 C.ar    1  UNL1        0.0689
      3 C          15.0666   41.3962    8.3032 C.ar    1  UNL1        0.0074
      4 C          15.6171   42.4499    7.5535 C.ar    1  UNL1        0.0179
      5 C          16.9223   42.8824    7.7984 C.ar    1  UNL1        0.0015
      6 C          17.4617   43.9332    7.0500 C.ar    1  UNL1        0.0001
      7 C          16.6997   44.5567    6.0558 C.ar    1  UNL1        0.0015
      8 C          15.3907   44.1356    5.8009 C.ar    1  UNL1        0.0192
      9 C          14.8375   43.0862    6.5386 C.ar    1  UNL1        0.0829
     10 C          13.0491   41.6535    7.0233 C.ar    1  UNL1        0.1621
     11 N          11.8033   41.1575    6.9659 N.ar    1  UNL1       -0.2329
     12 N          11.6874   40.2012    7.8842 N.ar    1  UNL1       -0.1527
     13 N          13.5553   42.6805    6.2951 N.ar    1  UNL1       -0.2268
     14 C          14.1585   39.2664   10.5673 C.2     1  UNL1        0.2277
     15 C          14.0902   38.4465   11.8044 C.3     1  UNL1        0.0950
     16 N          13.0953   39.1879    9.6133 N.am    1  UNL1       -0.2679
     17 O          15.1760   39.9748   10.3501 O.2     1  UNL1       -0.2747
     18 H          12.4509   38.4517    9.7221 H       1  UNL1        0.1563
     19 C          10.7421   41.6120    6.0713 C.3     1  UNL1        0.1292
     20 C           9.3776   41.0908    6.5032 C.3     1  UNL1        0.0264
     21 C           7.3558   42.5481    6.4512 C.3     1  UNL1        0.0001
     22 C           8.6028   42.1748    7.2306 C.3     1  UNL1        0.0021
@<TRIPOS>BOND
     1    21    22    1
     2    22    20    1
     3    20    19    1
     4    19    11    1
     5     1    16    1
     6     1     2   ar
     7    15    14    1
     8     3     4   ar
     9     5     6   ar
    10     7     8   ar
    11     9    13   ar
    12     9     4   ar
    13    10    11   ar
    14    10     2   ar
    15    11    12   ar
    16    16    14   am
    17     1    12   ar
    18    14    17    2
    19     2     3   ar
    20     4     5   ar
    21     6     7   ar
    22     8     9   ar
    23    10    13   ar
    24    16    18    1
@<TRIPOS>MOLECULE
MolPort-002-604-220 2379556 CSSS00132751994 LN00663321 MCULE-5847717623 PubChem-1987692 ZINC000002379556 ZINC02379556
 22 24 0 0 0
SMALL
GASTEIGER

@<TRIPOS>ATOM
      1 C          15.6016   39.2599   10.1372 C.ar    1  UNL1        0.1568
      2 C          15.7749   40.3603    9.3129 C.ar    1  UNL1        0.0689
      3 C          16.8767   41.1127    8.9183 C.ar    1  UNL1        0.0074
      4 C          16.6279   42.2225    8.0926 C.ar    1  UNL1        0.0179
      5 C          17.6845   43.0178    7.6435 C.ar    1  UNL1        0.0015
      6 C          17.4284   44.1219    6.8245 C.ar    1  UNL1        0.0001
      7 C          16.1167   44.4365    6.4524 C.ar    1  UNL1        0.0015
      8 C          15.0486   43.6504    6.8961 C.ar    1  UNL1        0.0192
      9 C          15.2877   42.5431    7.7136 C.ar    1  UNL1        0.0829
     10 C          14.5083   40.7065    8.9407 C.ar    1  UNL1        0.1621
     11 N          13.6170   39.8802    9.5099 N.ar    1  UNL1       -0.2329
     12 N          14.2770   38.9967   10.2549 N.ar    1  UNL1       -0.1527
     13 N          14.2430   41.7799    8.1542 N.ar    1  UNL1       -0.2268
     14 C          17.5154   37.5821   10.3184 C.2     1  UNL1        0.2277
     15 C          18.6746   37.1316   11.1312 C.3     1  UNL1        0.0950
     16 N          16.6048   38.5406   10.8649 N.am    1  UNL1       -0.2679
     17 O          17.3201   37.0727    9.1840 O.2     1  UNL1       -0.2747
     18 H          16.6738   38.7228   11.8299 H       1  UNL1        0.1563
     19 C          12.1658   39.9566    9.3652 C.3     1  UNL1        0.1292
     20 C          11.4930   40.4127   10.6533 C.3     1  UNL1        0.0264
     21 C          11.0497   42.6505    9.6486 C.3     1  UNL1        0.0001
     22 C          10.4334   41.4581   10.3559 C.3     1  UNL1        0.0021
@<TRIPOS>BOND
     1    21    22    1
     2    22    20    1
     3    20    19    1
     4    19    11    1
     5     1    16    1
     6     1     2   ar
     7    15    14    1
     8     3     4   ar
     9     5     6   ar
    10     7     8   ar
    11     9    13   ar
    12     9     4   ar
    13    10    11   ar
    14    10     2   ar
    15    11    12   ar
    16    16    14   am
    17     1    12   ar
    18    14    17    2
    19     2     3   ar
    20     4     5   ar
    21     6     7   ar
    22     8     9   ar
    23    10    13   ar
    24    16    18    1
@<TRIPOS>MOLECULE
MolPort-002-604-220 2379556 CSSS00132751994 LN00663321 MCULE-5847717623 PubChem-1987692 ZINC000002379556 ZINC02379556
 22 24 0 0 0
SMALL
GASTEIGER

@<TRIPOS>ATOM
      1 C          11.8096   41.0978    7.4380 C.ar    1  UNL1        0.1568
      2 C          13.0414   41.7281    7.3614 C.ar    1  UNL1        0.0689
      3 C          13.5476   42.7789    6.6030 C.ar    1  UNL1        0.0074
      4 C          14.9057   43.0953    6.7789 C.ar    1  UNL1        0.0179
      5 C          15.4828   44.1469    6.0636 C.ar    1  UNL1        0.0015
      6 C          16.8353   44.4536    6.2423 C.ar    1  UNL1        0.0001
      7 C          17.6165   43.7108    7.1344 C.ar    1  UNL1        0.0015
      8 C          17.0527   42.6539    7.8560 C.ar    1  UNL1        0.0192
      9 C          15.7027   42.3356    7.6901 C.ar    1  UNL1        0.0829
     10 C          13.8380   41.0176    8.2117 C.ar    1  UNL1        0.1621
     11 N          13.1431   40.0105    8.7633 N.ar    1  UNL1       -0.2329
     12 N          11.9011   40.0442    8.2861 N.ar    1  UNL1       -0.1527
     13 N          15.1539   41.2971    8.3891 N.ar    1  UNL1       -0.2268
     14 C           9.3265   41.6483    7.2332 C.2     1  UNL1        0.2277
     15 C           8.2662   42.2111    6.3576 C.3     1  UNL1        0.0950
     16 N          10.6241   41.3917    6.6885 N.am    1  UNL1       -0.2679
     17 O           9.0519   41.3534    8.4257 O.2     1  UNL1       -0.2747
     18 H          10.7107   41.4195    5.7082 H       1  UNL1        0.1563
     19 C          13.6679   39.0226    9.7021 C.3     1  UNL1        0.1292
     20 C          13.5142   39.4792   11.1470 C.3     1  UNL1        0.0264
     21 C          14.6321   37.3036   11.6279 C.3     1  UNL1        0.0001
     22 C          14.5096   38.7590   12.0387 C.3     1  UNL1        0.0021
@<TRIPOS>BOND
     1    21    22    1
     2    22    20    1
     3    20    19    1
     4    19    11    1
     5     1    16    1
     6     1     2   ar
     7    15    14    1
     8     3     4   ar
     9     5     6   ar
    10     7     8   ar
    11     9    13   ar
    12     9     4   ar
    13    10    11   ar
    14    10     2   ar
    15    11    12   ar
    16    16    14   am
    17     1    12   ar
    18    14    17    2
    19     2     3   ar
    20     4     5   ar
    21     6     7   ar
    22     8     9   ar
    23    10    13   ar
    24    16    18    1
@<TRIPOS>MOLECULE
MolPort-002-604-220 2379556 CSSS00132751994 LN00663321 MCULE-5847717623 PubChem-1987692 ZINC000002379556 ZINC02379556
 22 24 0 0 0
SMALL
GASTEIGER

@<TRIPOS>ATOM
      1 C          12.4660   39.5831    8.2860 C.ar    1  UNL1        0.1568
      2 C          13.2816   40.6093    7.8364 C.ar    1  UNL1        0.0689
      3 C          14.5202   41.1065    8.2290 C.ar    1  UNL1        0.0074
      4 C          15.0038   42.2308    7.5380 C.ar    1  UNL1        0.0179
      5 C          16.2461   42.7787    7.8651 C.ar    1  UNL1        0.0015
      6 C          16.7188   43.8990    7.1746 C.ar    1  UNL1        0.0001
      7 C          15.9525   44.4769    6.1565 C.ar    1  UNL1        0.0015
      8 C          14.7058   43.9404    5.8194 C.ar    1  UNL1        0.0192
      9 C          14.2198   42.8205    6.4985 C.ar    1  UNL1        0.0829
     10 C          12.5567   41.2086    6.8476 C.ar    1  UNL1        0.1621
     11 N          11.3698   40.5974    6.7092 N.ar    1  UNL1       -0.2329
     12 N          11.3000   39.6065    7.5949 N.ar    1  UNL1       -0.1527
     13 N          12.9976   42.3013    6.1748 N.ar    1  UNL1       -0.2268
     14 C          11.9268   37.5265    9.6968 C.2     1  UNL1        0.2277
     15 C          12.4575   36.5365   10.6693 C.3     1  UNL1        0.0950
     16 N          12.7080   38.6801    9.3720 N.am    1  UNL1       -0.2679
     17 O          10.7748   37.3649    9.2160 O.2     1  UNL1       -0.2747
     18 H          13.4834   38.8712    9.9478 H       1  UNL1        0.1563
     19 C          10.3174   40.9754    5.7698 C.3     1  UNL1        0.1292
     20 C          10.4948   40.2944    4.4190 C.3     1  UNL1        0.0264
     21 C           9.4921   38.4917    3.0195 C.3     1  UNL1        0.0001
     22 C           9.8502   38.9201    4.4302 C.3     1  UNL1        0.0021
@<TRIPOS>BOND
     1    21    22    1
     2    22    20    1
     3    20    19    1
     4    19    11    1
     5     1    16    1
     6     1     2   ar
     7    15    14    1
     8     3     4   ar
     9     5     6   ar
    10     7     8   ar
    11     9    13   ar
    12     9     4   ar
    13    10    11   ar
    14    10     2   ar
    15    11    12   ar
    16    16    14   am
    17     1    12   ar
    18    14    17    2
    19     2     3   ar
    20     4     5   ar
    21     6     7   ar
    22     8     9   ar
    23    10    13   ar
    24    16    18    1
@<TRIPOS>MOLECULE
MolPort-002-604-220 2379556 CSSS00132751994 LN00663321 MCULE-5847717623 PubChem-1987692 ZINC000002379556 ZINC02379556
 22 24 0 0 0
SMALL
GASTEIGER

@<TRIPOS>ATOM
      1 C          12.9806   42.4590    7.5943 C.ar    1  UNL1        0.1568
      2 C          12.0688   41.6868    6.8923 C.ar    1  UNL1        0.0689
      3 C          12.0629   41.0999    5.6309 C.ar    1  UNL1        0.0074
      4 C          10.8921   40.4227    5.2485 C.ar    1  UNL1        0.0179
      5 C          10.8155   39.7957    4.0029 C.ar    1  UNL1        0.0015
      6 C           9.6461   39.1264    3.6289 C.ar    1  UNL1        0.0001
      7 C           8.5490   39.0821    4.4962 C.ar    1  UNL1        0.0015
      8 C           8.6106   39.7071    5.7457 C.ar    1  UNL1        0.0192
      9 C           9.7721   40.3786    6.1352 C.ar    1  UNL1        0.0829
     10 C          10.9739   41.6342    7.7053 C.ar    1  UNL1        0.1621
     11 N          11.1959   42.3385    8.8260 N.ar    1  UNL1       -0.2329
     12 N          12.4196   42.8579    8.7621 N.ar    1  UNL1       -0.1527
     13 N           9.8291   40.9966    7.3529 N.ar    1  UNL1       -0.2268
     14 C          14.5492   43.9858    6.2832 C.2     1  UNL1        0.2277
     15 C          15.9405   44.4910    6.1551 C.3     1  UNL1        0.0950
     16 N          14.2772   42.8938    7.1663 N.am    1  UNL1       -0.2679
     17 O          13.6407   44.4886    5.5717 O.2     1  UNL1       -0.2747
     18 H          15.0524   42.3949    7.5119 H       1  UNL1        0.1563
     19 C          10.2447   42.5321    9.9171 C.3     1  UNL1        0.1292
     20 C          10.1786   41.3157   10.8314 C.3     1  UNL1        0.0264
     21 C          11.2928   39.1582   10.2681 C.3     1  UNL1        0.0001
     22 C          11.4961   40.5621   10.8060 C.3     1  UNL1        0.0021
@<TRIPOS>BOND
     1    21    22    1
     2    22    20    1
     3    20    19    1
     4    19    11    1
     5     1    16    1
     6     1     2   ar
     7    15    14    1
     8     3     4   ar
     9     5     6   ar
    10     7     8   ar
    11     9    13   ar
    12     9     4   ar
    13    10    11   ar
    14    10     2   ar
    15    11    12   ar
    16    16    14   am
    17     1    12   ar
    18    14    17    2
    19     2     3   ar
    20     4     5   ar
    21     6     7   ar
    22     8     9   ar
    23    10    13   ar
    24    16    18    1
@<TRIPOS>MOLECULE
MolPort-002-604-220 2379556 CSSS00132751994 LN00663321 MCULE-5847717623 PubChem-1987692 ZINC000002379556 ZINC02379556
 22 24 0 0 0
SMALL
GASTEIGER

@<TRIPOS>ATOM
      1 C          12.4881   40.6507    7.9987 C.ar    1  UNL1        0.1568
      2 C          13.6348   41.3967    7.7773 C.ar    1  UNL1        0.0689
      3 C          13.9791   42.4028    6.8801 C.ar    1  UNL1        0.0074
      4 C          15.2996   42.8809    6.9349 C.ar    1  UNL1        0.0179
      5 C          15.7163   43.9003    6.0759 C.ar    1  UNL1        0.0015
      6 C          17.0326   44.3686    6.1348 C.ar    1  UNL1        0.0001
      7 C          17.9375   43.8199    7.0502 C.ar    1  UNL1        0.0015
      8 C          17.5350   42.7974    7.9151 C.ar    1  UNL1        0.0192
      9 C          16.2232   42.3194    7.8700 C.ar    1  UNL1        0.0829
     10 C          14.5492   40.8768    8.6467 C.ar    1  UNL1        0.1621
     11 N          14.0022   39.8701    9.3458 N.ar    1  UNL1       -0.2329
     12 N          12.7418   39.7161    8.9473 N.ar    1  UNL1       -0.1527
     13 N          15.8322   41.3142    8.7095 N.ar    1  UNL1       -0.2268
     14 C          10.1702   41.6341    7.5848 C.2     1  UNL1        0.2277
     15 C           9.0638   41.7885    6.6053 C.3     1  UNL1        0.0950
     16 N          11.2402   40.7288    7.2985 N.am    1  UNL1       -0.2679
     17 O          10.1217   42.2591    8.6763 O.2     1  UNL1       -0.2747
     18 H          11.1071   40.1016    6.5515 H       1  UNL1        0.1563
     19 C          14.6831   39.0572   10.3501 C.3     1  UNL1        0.1292
     20 C          13.7015   38.4424   11.3392 C.3     1  UNL1        0.0264
     21 C          13.2281   36.3253   10.1114 C.3     1  UNL1        0.0001
     22 C          13.8451   36.9313   11.3579 C.3     1  UNL1        0.0021
@<TRIPOS>BOND
     1    21    22    1
     2    22    20    1
     3    20    19    1
     4    19    11    1
     5     1    16    1
     6     1     2   ar
     7    15    14    1
     8     3     4   ar
     9     5     6   ar
    10     7     8   ar
    11     9    13   ar
    12     9     4   ar
    13    10    11   ar
    14    10     2   ar
    15    11    12   ar
    16    16    14   am
    17     1    12   ar
    18    14    17    2
    19     2     3   ar
    20     4     5   ar
    21     6     7   ar
    22     8     9   ar
    23    10    13   ar
    24    16    18    1
@<TRIPOS>MOLECULE
MolPort-002-604-220 2379556 CSSS00132751994 LN00663321 MCULE-5847717623 PubChem-1987692 ZINC000002379556 ZINC02379556
 22 24 0 0 0
SMALL
GASTEIGER

@<TRIPOS>ATOM
      1 C          12.5596   40.5091    7.9077 C.ar    1  UNL1        0.1568
      2 C          13.6871   41.2995    7.7512 C.ar    1  UNL1        0.0689
      3 C          14.0586   42.2913    6.8490 C.ar    1  UNL1        0.0074
      4 C          15.3485   42.8312    6.9909 C.ar    1  UNL1        0.0179
      5 C          15.7884   43.8408    6.1320 C.ar    1  UNL1        0.0015
      6 C          17.0742   44.3707    6.2780 C.ar    1  UNL1        0.0001
      7 C          17.9255   43.8935    7.2807 C.ar    1  UNL1        0.0015
      8 C          17.4993   42.8816    8.1467 C.ar    1  UNL1        0.0192
      9 C          16.2173   42.3426    8.0152 C.ar    1  UNL1        0.0829
     10 C          14.5503   40.8500    8.7079 C.ar    1  UNL1        0.1621
     11 N          13.9929   39.8421    9.3968 N.ar    1  UNL1       -0.2329
     12 N          12.7765   39.6177    8.9058 N.ar    1  UNL1       -0.1527
     13 N          15.8040   41.3477    8.8562 N.ar    1  UNL1       -0.2268
     14 C          10.2884   41.4384    7.2088 C.2     1  UNL1        0.2277
     15 C           9.2617   41.4815    6.1357 C.3     1  UNL1        0.0950
     16 N          11.3699   40.5075    7.1089 N.am    1  UNL1       -0.2679
     17 O          10.1612   42.1816    8.2167 O.2     1  UNL1       -0.2747
     18 H          11.2895   39.8004    6.4285 H       1  UNL1        0.1563
     19 C          14.6254   39.0936   10.4797 C.3     1  UNL1        0.1292
     20 C          15.8747   38.3622   10.0062 C.3     1  UNL1        0.0264
     21 C          18.2331   39.1127   10.3035 C.3     1  UNL1        0.0001
     22 C          17.0073   38.5514   10.9991 C.3     1  UNL1        0.0021
@<TRIPOS>BOND
     1    21    22    1
     2    22    20    1
     3    20    19    1
     4    19    11    1
     5     1    16    1
     6     1     2   ar
     7    15    14    1
     8     3     4   ar
     9     5     6   ar
    10     7     8   ar
    11     9    13   ar
    12     9     4   ar
    13    10    11   ar
    14    10     2   ar
    15    11    12   ar
    16    16    14   am
    17     1    12   ar
    18    14    17    2
    19     2     3   ar
    20     4     5   ar
    21     6     7   ar
    22     8     9   ar
    23    10    13   ar
    24    16    18    1
@<TRIPOS>MOLECULE
MolPort-002-604-220 2379556 CSSS00132751994 LN00663321 MCULE-5847717623 PubChem-1987692 ZINC000002379556 ZINC02379556
 22 24 0 0 0
SMALL
GASTEIGER

@<TRIPOS>ATOM
      1 C          14.1876   42.4491    7.1796 C.ar    1  UNL1        0.1568
      2 C          14.3986   41.5902    8.2465 C.ar    1  UNL1        0.0689
      3 C          15.5204   40.9628    8.7793 C.ar    1  UNL1        0.0074
      4 C          15.3098   40.0942    9.8640 C.ar    1  UNL1        0.0179
      5 C          16.3885   39.4388   10.4618 C.ar    1  UNL1        0.0015
      6 C          16.1703   38.5741   11.5388 C.ar    1  UNL1        0.0001
      7 C          14.8746   38.3596   12.0216 C.ar    1  UNL1        0.0015
      8 C          13.7847   39.0075   11.4316 C.ar    1  UNL1        0.0192
      9 C          13.9858   39.8756   10.3559 C.ar    1  UNL1        0.0829
     10 C          13.1484   41.3453    8.7356 C.ar    1  UNL1        0.1621
     11 N          12.2307   42.0011    8.0083 N.ar    1  UNL1       -0.2329
     12 N          12.8572   42.6716    7.0444 N.ar    1  UNL1       -0.1527
     13 N          12.9196   40.5021    9.7739 N.ar    1  UNL1       -0.2268
     14 C          16.2858   43.7803    6.6000 C.2     1  UNL1        0.2277
     15 C          17.3535   44.0032    5.5912 C.3     1  UNL1        0.0950
     16 N          15.1594   42.9658    6.2620 N.am    1  UNL1       -0.2679
     17 O          16.3599   44.3564    7.7168 O.2     1  UNL1       -0.2747
     18 H          15.0410   42.7393    5.3113 H       1  UNL1        0.1563
     19 C          10.7857   41.9601    8.2161 C.3     1  UNL1        0.1292
     20 C          10.3719   42.7349    9.4605 C.3     1  UNL1        0.0264
     21 C          10.0729   41.4496   11.5753 C.3     1  UNL1        0.0001
     22 C           9.4041   41.9167   10.2962 C.3     1  UNL1        0.0021
@<TRIPOS>BOND
     1    21    22    1
     2    22    20    1
     3    20    19    1
     4    19    11    1
     5     1    16    1
     6     1     2   ar
     7    15    14    1
     8     3     4   ar
     9     5     6   ar
    10     7     8   ar
    11     9    13   ar
    12     9     4   ar
    13    10    11   ar
    14    10     2   ar
    15    11    12   ar
    16    16    14   am
    17     1    12   ar
    18    14    17    2
    19     2     3   ar
    20     4     5   ar
    21     6     7   ar
    22     8     9   ar
    23    10    13   ar
    24    16    18    1
