@<TRIPOS>MOLECULE
MolPort-047-459-752 238259116 MCULE-6165726472 PubChem-121002143
 20 20 0 0 0
SMALL
GASTEIGER

@<TRIPOS>ATOM
      1 C          14.4100   43.2383    6.3332 C.ar    1  UNL1        0.1346
      2 C          14.6967   42.2899    7.2979 C.ar    1  UNL1        0.0398
      3 C          13.6200   41.4344    7.2361 C.ar    1  UNL1        0.0718
      4 C          12.7413   41.8754    6.2676 C.ar    1  UNL1        0.0875
      5 N          13.2378   42.9954    5.7112 N.ar    1  UNL1       -0.3459
      6 H          12.8278   43.5306    4.9937 H       1  UNL1        0.1662
      7 C          14.4783   39.7152    8.9082 C.2     1  UNL1        0.4052
      8 O          15.6236   40.2401    8.9743 O.2     1  UNL1       -0.2261
      9 N          13.4672   40.2756    8.0636 N.am    1  UNL1       -0.2485
     10 H          12.5916   39.8257    8.0506 H       1  UNL1        0.1582
     11 O          14.1726   38.5728    9.6604 O.3     1  UNL1       -0.4417
     12 C          13.7421   38.5888   11.0237 C.3     1  UNL1        0.1378
     13 C          12.7639   39.7256   11.2654 C.3     1  UNL1        0.0437
     14 C          14.9297   38.7238   11.9611 C.3     1  UNL1        0.0437
     15 C          13.0406   37.2816   11.3256 C.3     1  UNL1        0.0437
     16 C          15.2697   44.3822    6.0114 C.2     1  UNL1        0.3571
     17 O          15.0224   45.0843    4.9931 O.2     1  UNL1       -0.2433
     18 O          16.3555   44.6857    6.8356 O.3     1  UNL1       -0.4444
     19 C          18.0364   43.5691    8.1290 C.3     1  UNL1        0.0513
     20 C          17.5865   43.9843    6.7439 C.3     1  UNL1        0.2089
@<TRIPOS>BOND
     1    19    20    1
     2    20    18    1
     3    16    18    1
     4    16     1    1
     5     2     3   ar
     6     3     9    1
     7     4     5   ar
     8     7    11    1
     9    12    11    1
    10    12    13    1
    11    12    14    1
    12    12    15    1
    13     5     1   ar
    14     9     7   am
    15    16    17    2
    16     1     2   ar
    17     3     4   ar
    18     7     8    2
    19     5     6    1
    20     9    10    1
@<TRIPOS>MOLECULE
MolPort-047-459-752 238259116 MCULE-6165726472 PubChem-121002143
 20 20 0 0 0
SMALL
GASTEIGER

@<TRIPOS>ATOM
      1 C          14.1443   43.0577    6.3441 C.ar    1  UNL1        0.1346
      2 C          14.4566   42.0576    7.2466 C.ar    1  UNL1        0.0398
      3 C          13.3201   41.2812    7.2704 C.ar    1  UNL1        0.0718
      4 C          12.3833   41.8164    6.4098 C.ar    1  UNL1        0.0875
      5 N          12.9015   42.9189    5.8382 N.ar    1  UNL1       -0.3459
      6 H          12.4616   43.5066    5.1822 H       1  UNL1        0.1662
      7 C          12.6545   40.0728    9.4116 C.2     1  UNL1        0.4052
      8 O          12.2882   41.1345    9.9862 O.2     1  UNL1       -0.2261
      9 N          13.1673   40.1066    8.0753 N.am    1  UNL1       -0.2485
     10 H          13.4380   39.2487    7.6753 H       1  UNL1        0.1582
     11 O          12.5665   38.8385   10.0697 O.3     1  UNL1       -0.4417
     12 C          13.6787   38.1332   10.6263 C.3     1  UNL1        0.1378
     13 C          14.8156   38.0442    9.6227 C.3     1  UNL1        0.0437
     14 C          13.2668   36.7378   11.0624 C.3     1  UNL1        0.0437
     15 C          14.1718   38.8884   11.8421 C.3     1  UNL1        0.0437
     16 C          15.0481   44.1505    5.9695 C.2     1  UNL1        0.3571
     17 O          14.9527   44.6782    4.8277 O.2     1  UNL1       -0.2433
     18 O          16.0070   44.5989    6.8803 O.3     1  UNL1       -0.4444
     19 C          17.7443   43.6558    8.2358 C.3     1  UNL1        0.0513
     20 C          17.3461   44.1278    6.8531 C.3     1  UNL1        0.2089
@<TRIPOS>BOND
     1    19    20    1
     2    20    18    1
     3    16    18    1
     4    16     1    1
     5     2     3   ar
     6     3     9    1
     7     4     5   ar
     8     7    11    1
     9    12    11    1
    10    12    13    1
    11    12    14    1
    12    12    15    1
    13     5     1   ar
    14     9     7   am
    15    16    17    2
    16     1     2   ar
    17     3     4   ar
    18     7     8    2
    19     5     6    1
    20     9    10    1
@<TRIPOS>MOLECULE
MolPort-047-459-752 238259116 MCULE-6165726472 PubChem-121002143
 20 20 0 0 0
SMALL
GASTEIGER

@<TRIPOS>ATOM
      1 C          13.5184   42.4121    6.6536 C.ar    1  UNL1        0.1346
      2 C          12.1712   42.2348    6.3967 C.ar    1  UNL1        0.0398
      3 C          11.8518   41.1102    7.1235 C.ar    1  UNL1        0.0718
      4 C          12.9781   40.6541    7.7778 C.ar    1  UNL1        0.0875
      5 N          14.0088   41.4669    7.4817 N.ar    1  UNL1       -0.3459
      6 H          14.9354   41.3875    7.8048 H       1  UNL1        0.1662
      7 C           9.5107   40.8773    8.0997 C.2     1  UNL1        0.4052
      8 O           9.7065   41.7628    8.9766 O.2     1  UNL1       -0.2261
      9 N          10.5433   40.5300    7.1708 N.am    1  UNL1       -0.2485
     10 H          10.3361   39.8325    6.5077 H       1  UNL1        0.1582
     11 O           8.2779   40.2156    8.0169 O.3     1  UNL1       -0.4417
     12 C           7.1430   40.6991    7.2941 C.3     1  UNL1        0.1378
     13 C           6.0201   41.0755    8.2455 C.3     1  UNL1        0.0437
     14 C           6.6515   39.6567    6.3047 C.3     1  UNL1        0.0437
     15 C           7.5511   41.9361    6.5226 C.3     1  UNL1        0.0437
     16 C          14.3344   43.4968    6.0978 C.2     1  UNL1        0.3571
     17 O          13.7774   44.4476    5.4840 O.2     1  UNL1       -0.2433
     18 O          15.7219   43.4687    6.2530 O.3     1  UNL1       -0.4444
     19 C          17.8652   43.9582    7.2081 C.3     1  UNL1        0.0513
     20 C          16.3883   44.2927    7.1978 C.3     1  UNL1        0.2089
@<TRIPOS>BOND
     1    19    20    1
     2    20    18    1
     3    16    18    1
     4    16     1    1
     5     2     3   ar
     6     3     9    1
     7     4     5   ar
     8     7    11    1
     9    12    11    1
    10    12    13    1
    11    12    14    1
    12    12    15    1
    13     5     1   ar
    14     9     7   am
    15    16    17    2
    16     1     2   ar
    17     3     4   ar
    18     7     8    2
    19     5     6    1
    20     9    10    1
@<TRIPOS>MOLECULE
MolPort-047-459-752 238259116 MCULE-6165726472 PubChem-121002143
 20 20 0 0 0
SMALL
GASTEIGER

@<TRIPOS>ATOM
      1 C          14.6887   43.2029    6.4032 C.ar    1  UNL1        0.1346
      2 C          13.4396   43.4257    5.8533 C.ar    1  UNL1        0.0398
      3 C          12.6717   42.4127    6.3815 C.ar    1  UNL1        0.0718
      4 C          13.4528   41.6314    7.2087 C.ar    1  UNL1        0.0875
      5 N          14.7035   42.1276    7.2176 N.ar    1  UNL1       -0.3459
      6 H          15.4750   41.7762    7.7181 H       1  UNL1        0.1662
      7 C          10.6825   41.0188    5.6146 C.2     1  UNL1        0.4052
      8 O          11.3862   39.9930    5.4044 O.2     1  UNL1       -0.2261
      9 N          11.2807   42.2273    6.0956 N.am    1  UNL1       -0.2485
     10 H          10.6847   42.9970    6.2424 H       1  UNL1        0.1582
     11 O           9.3006   40.9959    5.3817 O.3     1  UNL1       -0.4417
     12 C           8.3040   40.9731    6.4066 C.3     1  UNL1        0.1378
     13 C           7.6122   42.3213    6.5139 C.3     1  UNL1        0.0437
     14 C           8.9179   40.6018    7.7454 C.3     1  UNL1        0.0437
     15 C           7.2664   39.9299    6.0503 C.3     1  UNL1        0.0437
     16 C          15.8712   44.0303    6.1414 C.2     1  UNL1        0.3571
     17 O          15.7294   45.2008    5.6931 O.2     1  UNL1       -0.2433
     18 O          17.1452   43.5159    6.3911 O.3     1  UNL1       -0.4444
     19 C          17.5656   43.5309    8.7508 C.3     1  UNL1        0.0513
     20 C          17.9897   44.0574    7.3958 C.3     1  UNL1        0.2089
@<TRIPOS>BOND
     1    19    20    1
     2    20    18    1
     3    16    18    1
     4    16     1    1
     5     2     3   ar
     6     3     9    1
     7     4     5   ar
     8     7    11    1
     9    12    11    1
    10    12    13    1
    11    12    14    1
    12    12    15    1
    13     5     1   ar
    14     9     7   am
    15    16    17    2
    16     1     2   ar
    17     3     4   ar
    18     7     8    2
    19     5     6    1
    20     9    10    1
@<TRIPOS>MOLECULE
MolPort-047-459-752 238259116 MCULE-6165726472 PubChem-121002143
 20 20 0 0 0
SMALL
GASTEIGER

@<TRIPOS>ATOM
      1 C          13.8221   43.3311    6.3917 C.ar    1  UNL1        0.1346
      2 C          13.4423   43.1674    7.7113 C.ar    1  UNL1        0.0398
      3 C          12.4292   42.2382    7.6401 C.ar    1  UNL1        0.0718
      4 C          12.2313   41.8782    6.3226 C.ar    1  UNL1        0.0875
      5 N          13.0993   42.5603    5.5531 N.ar    1  UNL1       -0.3459
      6 H          13.1888   42.5075    4.5741 H       1  UNL1        0.1662
      7 C          11.0874   42.5482    9.7829 C.2     1  UNL1        0.4052
      8 O          11.1358   43.8073    9.7203 O.2     1  UNL1       -0.2261
      9 N          11.7124   41.7436    8.7770 N.am    1  UNL1       -0.2485
     10 H          11.6435   40.7665    8.8753 H       1  UNL1        0.1582
     11 O          10.4205   41.9115   10.8386 O.3     1  UNL1       -0.4417
     12 C           9.0108   41.9783   11.0672 C.3     1  UNL1        0.1378
     13 C           8.2482   41.3610    9.9074 C.3     1  UNL1        0.0437
     14 C           8.5661   43.4167   11.2680 C.3     1  UNL1        0.0437
     15 C           8.6861   41.1974   12.3229 C.3     1  UNL1        0.0437
     16 C          14.8854   44.2344    5.9392 C.2     1  UNL1        0.3571
     17 O          14.9732   44.5355    4.7175 O.2     1  UNL1       -0.2433
     18 O          15.7923   44.7547    6.8650 O.3     1  UNL1       -0.4444
     19 C          17.8545   43.7336    6.1941 C.3     1  UNL1        0.0513
     20 C          16.8983   44.0004    7.3377 C.3     1  UNL1        0.2089
@<TRIPOS>BOND
     1    19    20    1
     2    20    18    1
     3    16    18    1
     4    16     1    1
     5     2     3   ar
     6     3     9    1
     7     4     5   ar
     8     7    11    1
     9    12    11    1
    10    12    13    1
    11    12    14    1
    12    12    15    1
    13     5     1   ar
    14     9     7   am
    15    16    17    2
    16     1     2   ar
    17     3     4   ar
    18     7     8    2
    19     5     6    1
    20     9    10    1
@<TRIPOS>MOLECULE
MolPort-047-459-752 238259116 MCULE-6165726472 PubChem-121002143
 20 20 0 0 0
SMALL
GASTEIGER

@<TRIPOS>ATOM
      1 C          13.5019   41.5693    7.5805 C.ar    1  UNL1        0.1346
      2 C          12.3008   42.2217    7.3705 C.ar    1  UNL1        0.0398
      3 C          11.3591   41.2733    7.7002 C.ar    1  UNL1        0.0718
      4 C          11.9966   40.1121    8.0874 C.ar    1  UNL1        0.0875
      5 N          13.3264   40.3029    8.0107 N.ar    1  UNL1       -0.3459
      6 H          14.0304   39.6490    8.2256 H       1  UNL1        0.1662
      7 C           9.0827   41.6878    8.7651 C.2     1  UNL1        0.4052
      8 O           9.5461   41.6796    9.9385 O.2     1  UNL1       -0.2261
      9 N           9.9450   41.4912    7.6393 N.am    1  UNL1       -0.2485
     10 H           9.5303   41.5073    6.7466 H       1  UNL1        0.1582
     11 O           7.7141   41.8896    8.5400 O.3     1  UNL1       -0.4417
     12 C           7.1168   43.1550    8.2466 C.3     1  UNL1        0.1378
     13 C           7.9564   44.2892    8.8090 C.3     1  UNL1        0.0437
     14 C           5.7085   43.2286    8.8108 C.3     1  UNL1        0.0437
     15 C           7.0391   43.3171    6.7434 C.3     1  UNL1        0.0437
     16 C          14.8224   42.1701    7.3647 C.2     1  UNL1        0.3571
     17 O          15.0104   42.9298    6.3755 O.2     1  UNL1       -0.2433
     18 O          15.8615   41.8969    8.2568 O.3     1  UNL1       -0.4444
     19 C          17.3862   43.6594    8.8173 C.3     1  UNL1        0.0513
     20 C          17.1808   42.3752    8.0415 C.3     1  UNL1        0.2089
@<TRIPOS>BOND
     1    19    20    1
     2    20    18    1
     3    16    18    1
     4    16     1    1
     5     2     3   ar
     6     3     9    1
     7     4     5   ar
     8     7    11    1
     9    12    11    1
    10    12    13    1
    11    12    14    1
    12    12    15    1
    13     5     1   ar
    14     9     7   am
    15    16    17    2
    16     1     2   ar
    17     3     4   ar
    18     7     8    2
    19     5     6    1
    20     9    10    1
@<TRIPOS>MOLECULE
MolPort-047-459-752 238259116 MCULE-6165726472 PubChem-121002143
 20 20 0 0 0
SMALL
GASTEIGER

@<TRIPOS>ATOM
      1 C          10.6319   41.5144    9.1328 C.ar    1  UNL1        0.1346
      2 C          11.5177   42.0323    8.2056 C.ar    1  UNL1        0.0398
      3 C          12.7194   41.4596    8.5561 C.ar    1  UNL1        0.0718
      4 C          12.5325   40.6386    9.6495 C.ar    1  UNL1        0.0875
      5 N          11.2345   40.6774   10.0022 N.ar    1  UNL1       -0.3459
      6 H          10.8097   40.1920   10.7460 H       1  UNL1        0.1662
      7 C          14.1721   42.7078    6.8768 C.2     1  UNL1        0.4052
      8 O          13.2383   43.4822    6.5307 O.2     1  UNL1       -0.2261
      9 N          13.9535   41.7005    7.8705 N.am    1  UNL1       -0.2485
     10 H          14.7171   41.1240    8.1024 H       1  UNL1        0.1582
     11 O          15.4427   42.8179    6.2955 O.3     1  UNL1       -0.4417
     12 C          16.3070   43.9478    6.4395 C.3     1  UNL1        0.1378
     13 C          15.5774   45.2317    6.0833 C.3     1  UNL1        0.0437
     14 C          17.5397   43.7968    5.5650 C.3     1  UNL1        0.0437
     15 C          16.7528   44.0357    7.8836 C.3     1  UNL1        0.0437
     16 C           9.2001   41.8290    9.1796 C.2     1  UNL1        0.3571
     17 O           8.4715   41.5798    8.1805 O.2     1  UNL1       -0.2433
     18 O           8.6542   42.4014   10.3304 O.3     1  UNL1       -0.4444
     19 C           8.5693   41.3522   12.4839 C.3     1  UNL1        0.0513
     20 C           7.8152   41.6663   11.2088 C.3     1  UNL1        0.2089
@<TRIPOS>BOND
     1    19    20    1
     2    20    18    1
     3    16    18    1
     4    16     1    1
     5     2     3   ar
     6     3     9    1
     7     4     5   ar
     8     7    11    1
     9    12    11    1
    10    12    13    1
    11    12    14    1
    12    12    15    1
    13     5     1   ar
    14     9     7   am
    15    16    17    2
    16     1     2   ar
    17     3     4   ar
    18     7     8    2
    19     5     6    1
    20     9    10    1
@<TRIPOS>MOLECULE
MolPort-047-459-752 238259116 MCULE-6165726472 PubChem-121002143
 20 20 0 0 0
SMALL
GASTEIGER

@<TRIPOS>ATOM
      1 C          15.3848   41.6318    8.1753 C.ar    1  UNL1        0.1346
      2 C          14.4848   40.6060    8.3987 C.ar    1  UNL1        0.0398
      3 C          15.1535   39.7775    9.2712 C.ar    1  UNL1        0.0718
      4 C          16.3983   40.3084    9.5419 C.ar    1  UNL1        0.0875
      5 N          16.5352   41.4593    8.8583 N.ar    1  UNL1       -0.3459
      6 H          17.3182   42.0561    8.8570 H       1  UNL1        0.1662
      7 C          13.6776   38.4623   10.8777 C.2     1  UNL1        0.4052
      8 O          13.2562   39.4998   11.4588 O.2     1  UNL1       -0.2261
      9 N          14.6117   38.5605    9.7971 N.am    1  UNL1       -0.2485
     10 H          14.9070   37.7192    9.3797 H       1  UNL1        0.1582
     11 O          13.2396   37.1926   11.2780 O.3     1  UNL1       -0.4417
     12 C          12.4376   36.3201   10.4782 C.3     1  UNL1        0.1378
     13 C          11.5651   37.1166    9.5231 C.3     1  UNL1        0.0437
     14 C          11.5672   35.4359   11.3543 C.3     1  UNL1        0.0437
     15 C          13.3532   35.4324    9.6624 C.3     1  UNL1        0.0437
     16 C          15.1335   42.7814    7.2997 C.2     1  UNL1        0.3571
     17 O          16.0680   43.2433    6.5894 O.2     1  UNL1       -0.2433
     18 O          13.8611   43.3554    7.2587 O.3     1  UNL1       -0.4444
     19 C          12.3183   41.9977    6.0252 C.3     1  UNL1        0.0513
     20 C          12.6813   42.5746    7.3775 C.3     1  UNL1        0.2089
@<TRIPOS>BOND
     1    19    20    1
     2    20    18    1
     3    16    18    1
     4    16     1    1
     5     2     3   ar
     6     3     9    1
     7     4     5   ar
     8     7    11    1
     9    12    11    1
    10    12    13    1
    11    12    14    1
    12    12    15    1
    13     5     1   ar
    14     9     7   am
    15    16    17    2
    16     1     2   ar
    17     3     4   ar
    18     7     8    2
    19     5     6    1
    20     9    10    1
@<TRIPOS>MOLECULE
MolPort-047-459-752 238259116 MCULE-6165726472 PubChem-121002143
 20 20 0 0 0
SMALL
GASTEIGER

@<TRIPOS>ATOM
      1 C          13.6753   38.3661   10.7902 C.ar    1  UNL1        0.1346
      2 C          12.5304   38.0113   10.1006 C.ar    1  UNL1        0.0398
      3 C          11.7488   39.1420   10.1741 C.ar    1  UNL1        0.0718
      4 C          12.4212   40.1168   10.8829 C.ar    1  UNL1        0.0875
      5 N          13.6163   39.6284   11.2622 N.ar    1  UNL1       -0.3459
      6 H          14.3089   40.0983   11.7806 H       1  UNL1        0.1662
      7 C          10.1022   40.0658    8.4642 C.2     1  UNL1        0.4052
      8 O          10.9790   40.7639    7.8852 O.2     1  UNL1       -0.2261
      9 N          10.4444   39.2552    9.5937 N.am    1  UNL1       -0.2485
     10 H           9.7210   38.7307   10.0068 H       1  UNL1        0.1582
     11 O           8.7751   40.0694    8.0133 O.3     1  UNL1       -0.4417
     12 C           8.3841   40.0796    6.6381 C.3     1  UNL1        0.1378
     13 C           6.8999   39.7874    6.4990 C.3     1  UNL1        0.0437
     14 C           9.1855   39.0629    5.8437 C.3     1  UNL1        0.0437
     15 C           8.6565   41.4551    6.0673 C.3     1  UNL1        0.0437
     16 C          14.8292   37.4839   10.9941 C.2     1  UNL1        0.3571
     17 O          14.9566   36.8618   12.0839 O.2     1  UNL1       -0.2433
     18 O          15.7778   37.3391    9.9795 O.3     1  UNL1       -0.4444
     19 C          14.9479   35.3431    8.9437 C.3     1  UNL1        0.0513
     20 C          15.4539   36.7539    8.7271 C.3     1  UNL1        0.2089
@<TRIPOS>BOND
     1    19    20    1
     2    20    18    1
     3    16    18    1
     4    16     1    1
     5     2     3   ar
     6     3     9    1
     7     4     5   ar
     8     7    11    1
     9    12    11    1
    10    12    13    1
    11    12    14    1
    12    12    15    1
    13     5     1   ar
    14     9     7   am
    15    16    17    2
    16     1     2   ar
    17     3     4   ar
    18     7     8    2
    19     5     6    1
    20     9    10    1
@<TRIPOS>MOLECULE
MolPort-047-459-752 238259116 MCULE-6165726472 PubChem-121002143
 20 20 0 0 0
SMALL
GASTEIGER

@<TRIPOS>ATOM
      1 C          13.2128   39.2623    9.4253 C.ar    1  UNL1        0.1346
      2 C          12.4533   40.3593    9.7887 C.ar    1  UNL1        0.0398
      3 C          11.2803   40.1823    9.0904 C.ar    1  UNL1        0.0718
      4 C          11.3610   39.0213    8.3486 C.ar    1  UNL1        0.0875
      5 N          12.5632   38.4553    8.5612 N.ar    1  UNL1       -0.3459
      6 H          12.9010   37.6196    8.1654 H       1  UNL1        0.1662
      7 C           9.7039   41.9036    8.0701 C.2     1  UNL1        0.4052
      8 O          10.2800   41.8771    6.9481 O.2     1  UNL1       -0.2261
      9 N          10.1684   41.0831    9.1476 N.am    1  UNL1       -0.2485
     10 H           9.6816   41.1434   10.0013 H       1  UNL1        0.1582
     11 O           8.5974   42.7366    8.2845 O.3     1  UNL1       -0.4417
     12 C           7.2780   42.4762    7.7991 C.3     1  UNL1        0.1378
     13 C           7.1093   43.0112    6.3873 C.3     1  UNL1        0.0437
     14 C           6.2363   43.0980    8.7129 C.3     1  UNL1        0.0437
     15 C           7.0584   40.9785    7.7726 C.3     1  UNL1        0.0437
     16 C          14.5694   38.9927    9.9133 C.2     1  UNL1        0.3571
     17 O          14.8987   39.3511   11.0770 O.2     1  UNL1       -0.2433
     18 O          15.4860   38.3405    9.0859 O.3     1  UNL1       -0.4444
     19 C          17.3694   37.1102    9.9132 C.3     1  UNL1        0.0513
     20 C          15.9571   37.0322    9.3722 C.3     1  UNL1        0.2089
@<TRIPOS>BOND
     1    19    20    1
     2    20    18    1
     3    16    18    1
     4    16     1    1
     5     2     3   ar
     6     3     9    1
     7     4     5   ar
     8     7    11    1
     9    12    11    1
    10    12    13    1
    11    12    14    1
    12    12    15    1
    13     5     1   ar
    14     9     7   am
    15    16    17    2
    16     1     2   ar
    17     3     4   ar
    18     7     8    2
    19     5     6    1
    20     9    10    1
