@<TRIPOS>MOLECULE
MolPort-038-935-636 MCULE-3364464604 MCULE-5536987923 PubChem-160976054 PubChem-160976055 PubChem-45480521 PubChem-87361682 ZINC000116862995
 36 41 0 0 0
SMALL
GASTEIGER

@<TRIPOS>ATOM
      1 C           8.3656   42.3999    9.1913 C.ar    1  UNL1        0.0477
      2 C           8.7350   42.9089   10.4331 C.ar    1  UNL1        0.1047
      3 C          10.6672   41.9393    9.8225 C.ar    1  UNL1        0.1653
      4 N          10.0228   42.6445   10.7789 N.ar    1  UNL1       -0.2227
      5 S           9.6798   41.6049    8.5071 S.2     1  UNL1       -0.0540
      6 C          12.6099   40.4446    9.1673 C.2     1  UNL1        0.2304
      7 N          12.0301   41.5165    9.9198 N.am    1  UNL1       -0.2639
      8 O          11.9147   39.7696    8.3598 O.2     1  UNL1       -0.2744
      9 H          12.6127   41.9979   10.5507 H       1  UNL1        0.1567
     10 C          14.0668   40.1502    9.3062 C.3     1  UNL1        0.0880
     11 C          14.4843   39.4167   10.5655 C.3     1  UNL1        0.0135
     12 C          14.4364   38.6819    9.2337 C.3     1  UNL1        0.0135
     13 C          15.0689   41.0969    8.7214 C.ar    1  UNL1       -0.0114
     14 C          14.7021   41.9423    7.6530 C.ar    1  UNL1        0.0364
     15 C          15.6838   42.7763    7.1217 C.ar    1  UNL1        0.1761
     16 C          16.9566   42.7833    7.5933 C.ar    1  UNL1        0.1764
     17 C          17.3637   41.9571    8.6371 C.ar    1  UNL1        0.0399
     18 C          16.4006   41.1010    9.2013 C.ar    1  UNL1       -0.0005
     19 C          16.8505   44.3147    5.9077 C.3     1  UNL1        0.4294
     20 O          17.7050   43.7034    6.8857 O.3     1  UNL1       -0.4346
     21 O          15.5704   43.6931    6.0940 O.3     1  UNL1       -0.4346
     22 C           7.0244   42.5359    8.5369 C.3     1  UNL1        0.1115
     23 C           8.3216   40.5061    5.7915 C.3     1  UNL1        0.0480
     24 C           8.2390   41.8117    6.5482 C.3     1  UNL1        0.0752
     25 C           6.6004   40.4332    7.4826 C.3     1  UNL1        0.1022
     26 C           7.3325   39.5847    6.4638 C.3     1  UNL1        0.1278
     27 N           6.9553   41.8273    7.2459 N.3     1  UNL1       -0.2642
     28 O           6.4270   39.1107    5.5166 O.3     1  UNL1       -0.3830
     29 H           5.9803   39.8603    5.0929 H       1  UNL1        0.2104
     30 C           5.8612   42.3104    9.4843 C.ar    1  UNL1        0.0075
     31 C           5.9512   41.3629   10.5174 C.ar    1  UNL1       -0.0018
     32 C           4.8840   41.1656   11.3972 C.ar    1  UNL1       -0.0002
     33 C           3.7179   41.9214   11.2588 C.ar    1  UNL1        0.0008
     34 C           3.6208   42.8758   10.2428 C.ar    1  UNL1        0.0111
     35 C           4.6853   43.0766    9.3573 C.ar    1  UNL1        0.0553
     36 CL          4.5050   44.2786    8.0895 Cl      1  UNL1       -0.0825
@<TRIPOS>BOND
     1    23    24    1
     2    24    27    1
     3    25    27    1
     4    25    26    1
     5    26    28    1
     6    26    23    1
     7    22    27    1
     8    22    30    1
     9    22     1    1
    10    31    32   ar
    11    33    34   ar
    12    35    36    1
    13    35    30   ar
    14     1     5   ar
    15     2     4   ar
    16     3     5   ar
    17     3     7    1
    18    10     6    1
    19    10    11    1
    20    10    13    1
    21    11    12    1
    22    12    10    1
    23    14    15   ar
    24    15    21    1
    25    16    17   ar
    26    16    20    1
    27    18    13   ar
    28    19    20    1
    29    19    21    1
    30     7     6   am
    31    30    31   ar
    32    32    33   ar
    33    34    35   ar
    34     1     2   ar
    35     3     4   ar
    36     6     8    2
    37    13    14   ar
    38    15    16   ar
    39    17    18   ar
    40     7     9    1
    41    28    29    1
@<TRIPOS>MOLECULE
MolPort-038-935-636 MCULE-3364464604 MCULE-5536987923 PubChem-160976054 PubChem-160976055 PubChem-45480521 PubChem-87361682 ZINC000116862995
 36 41 0 0 0
SMALL
GASTEIGER

@<TRIPOS>ATOM
      1 C           7.9313   42.8597    9.7761 C.ar    1  UNL1        0.0477
      2 C           8.7732   43.6574   10.5458 C.ar    1  UNL1        0.1047
      3 C          10.1862   41.9887   10.0307 C.ar    1  UNL1        0.1653
      4 N          10.0313   43.1614   10.6849 N.ar    1  UNL1       -0.2227
      5 S           8.7796   41.5054    9.2529 S.2     1  UNL1       -0.0540
      6 C          12.1800   40.9729    8.8348 C.2     1  UNL1        0.2304
      7 N          11.4034   41.2381   10.0087 N.am    1  UNL1       -0.2639
      8 O          11.8047   41.3840    7.7030 O.2     1  UNL1       -0.2744
      9 H          11.7318   40.8769   10.8637 H       1  UNL1        0.1567
     10 C          13.4740   40.2386    8.9572 C.3     1  UNL1        0.0880
     11 C          14.6474   40.8181    8.1921 C.3     1  UNL1        0.0135
     12 C          14.5662   40.9791    9.7031 C.3     1  UNL1        0.0135
     13 C          13.4633   38.7522    9.1384 C.ar    1  UNL1       -0.0114
     14 C          12.4445   38.1407    9.8991 C.ar    1  UNL1        0.0364
     15 C          12.5037   36.7588   10.0674 C.ar    1  UNL1        0.1761
     16 C          13.5033   36.0098    9.5359 C.ar    1  UNL1        0.1764
     17 C          14.5342   36.5739    8.7897 C.ar    1  UNL1        0.0399
     18 C          14.5089   37.9669    8.5961 C.ar    1  UNL1       -0.0005
     19 C          12.1058   34.5876   10.6413 C.3     1  UNL1        0.4294
     20 O          13.3052   34.6816    9.8584 O.3     1  UNL1       -0.4346
     21 O          11.6277   35.9365   10.7501 O.3     1  UNL1       -0.4346
     22 C           6.4994   43.1440    9.4382 C.3     1  UNL1        0.1115
     23 C           7.4843   43.6057    5.9516 C.3     1  UNL1        0.0480
     24 C           7.2163   44.1522    7.3348 C.3     1  UNL1        0.0752
     25 C           6.4825   41.9345    7.3769 C.3     1  UNL1        0.1022
     26 C           7.1035   42.1459    6.0117 C.3     1  UNL1        0.1278
     27 N           6.2746   43.2433    7.9845 N.3     1  UNL1       -0.2642
     28 O           6.1584   41.8753    5.0241 O.3     1  UNL1       -0.3830
     29 H           5.3857   42.4478    5.1504 H       1  UNL1        0.2104
     30 C           5.5124   42.2872   10.2085 C.ar    1  UNL1        0.0075
     31 C           5.9634   41.2960   11.0958 C.ar    1  UNL1       -0.0018
     32 C           5.0534   40.5166   11.8144 C.ar    1  UNL1       -0.0002
     33 C           3.6815   40.7269   11.6601 C.ar    1  UNL1        0.0008
     34 C           3.2206   41.7183   10.7898 C.ar    1  UNL1        0.0111
     35 C           4.1268   42.5007   10.0659 C.ar    1  UNL1        0.0553
     36 CL          3.4935   43.7229    8.9751 Cl      1  UNL1       -0.0825
@<TRIPOS>BOND
     1    23    24    1
     2    24    27    1
     3    25    27    1
     4    25    26    1
     5    26    28    1
     6    26    23    1
     7    22    27    1
     8    22    30    1
     9    22     1    1
    10    31    32   ar
    11    33    34   ar
    12    35    36    1
    13    35    30   ar
    14     1     5   ar
    15     2     4   ar
    16     3     5   ar
    17     3     7    1
    18    10     6    1
    19    10    11    1
    20    10    13    1
    21    11    12    1
    22    12    10    1
    23    14    15   ar
    24    15    21    1
    25    16    17   ar
    26    16    20    1
    27    18    13   ar
    28    19    20    1
    29    19    21    1
    30     7     6   am
    31    30    31   ar
    32    32    33   ar
    33    34    35   ar
    34     1     2   ar
    35     3     4   ar
    36     6     8    2
    37    13    14   ar
    38    15    16   ar
    39    17    18   ar
    40     7     9    1
    41    28    29    1
@<TRIPOS>MOLECULE
MolPort-038-935-636 MCULE-3364464604 MCULE-5536987923 PubChem-160976054 PubChem-160976055 PubChem-45480521 PubChem-87361682 ZINC000116862995
 36 41 0 0 0
SMALL
GASTEIGER

@<TRIPOS>ATOM
      1 C           7.9294   41.8494    9.4668 C.ar    1  UNL1        0.0477
      2 C           8.2130   40.7199    8.7043 C.ar    1  UNL1        0.1047
      3 C          10.1119   40.8688    9.8953 C.ar    1  UNL1        0.1653
      4 N           9.4362   40.1797    8.9486 N.ar    1  UNL1       -0.2227
      5 S           9.2356   42.1783   10.4734 S.2     1  UNL1       -0.0540
      6 C          12.2984   39.5961    9.7028 C.2     1  UNL1        0.2304
      7 N          11.4255   40.5304   10.3484 N.am    1  UNL1       -0.2639
      8 O          11.9317   38.9754    8.6677 O.2     1  UNL1       -0.2744
      9 H          11.7542   40.9724   11.1644 H       1  UNL1        0.1567
     10 C          13.6771   39.3863   10.2350 C.3     1  UNL1        0.0880
     11 C          13.7774   38.9771   11.6913 C.3     1  UNL1        0.0135
     12 C          14.0182   37.9531   10.5917 C.3     1  UNL1        0.0135
     13 C          14.8090   40.2021    9.6911 C.ar    1  UNL1       -0.0114
     14 C          14.5700   41.1545    8.6779 C.ar    1  UNL1        0.0364
     15 C          15.6647   41.8591    8.1813 C.ar    1  UNL1        0.1761
     16 C          16.9261   41.6448    8.6345 C.ar    1  UNL1        0.1764
     17 C          17.2078   40.7066    9.6236 C.ar    1  UNL1        0.0399
     18 C          16.1282   39.9755   10.1517 C.ar    1  UNL1       -0.0005
     19 C          17.0463   43.2704    7.0407 C.3     1  UNL1        0.4294
     20 O          17.8026   42.4801    7.9701 O.3     1  UNL1       -0.4346
     21 O          15.6873   42.8410    7.2092 O.3     1  UNL1       -0.4346
     22 C           6.6661   42.6543    9.4294 C.3     1  UNL1        0.1115
     23 C           7.3718   43.9808    6.1005 C.3     1  UNL1        0.0480
     24 C           7.2133   44.1641    7.5922 C.3     1  UNL1        0.0752
     25 C           6.4876   41.9897    7.1406 C.3     1  UNL1        0.1022
     26 C           6.9985   42.5437    5.8267 C.3     1  UNL1        0.1278
     27 N           6.3269   43.1040    8.0670 N.3     1  UNL1       -0.2642
     28 O           5.9786   42.5053    4.8780 O.3     1  UNL1       -0.3830
     29 H           5.2176   43.0130    5.2006 H       1  UNL1        0.2104
     30 C           5.5327   42.0424   10.2310 C.ar    1  UNL1        0.0075
     31 C           5.7792   41.0025   11.1427 C.ar    1  UNL1       -0.0018
     32 C           4.7365   40.4489   11.8898 C.ar    1  UNL1       -0.0002
     33 C           3.4365   40.9363   11.7399 C.ar    1  UNL1        0.0008
     34 C           3.1804   41.9788   10.8453 C.ar    1  UNL1        0.0111
     35 C           4.2201   42.5361   10.0927 C.ar    1  UNL1        0.0553
     36 CL          3.8406   43.8344    8.9724 Cl      1  UNL1       -0.0825
@<TRIPOS>BOND
     1    23    24    1
     2    24    27    1
     3    25    27    1
     4    25    26    1
     5    26    28    1
     6    26    23    1
     7    22    27    1
     8    22    30    1
     9    22     1    1
    10    31    32   ar
    11    33    34   ar
    12    35    36    1
    13    35    30   ar
    14     1     5   ar
    15     2     4   ar
    16     3     5   ar
    17     3     7    1
    18    10     6    1
    19    10    11    1
    20    10    13    1
    21    11    12    1
    22    12    10    1
    23    14    15   ar
    24    15    21    1
    25    16    17   ar
    26    16    20    1
    27    18    13   ar
    28    19    20    1
    29    19    21    1
    30     7     6   am
    31    30    31   ar
    32    32    33   ar
    33    34    35   ar
    34     1     2   ar
    35     3     4   ar
    36     6     8    2
    37    13    14   ar
    38    15    16   ar
    39    17    18   ar
    40     7     9    1
    41    28    29    1
@<TRIPOS>MOLECULE
MolPort-038-935-636 MCULE-3364464604 MCULE-5536987923 PubChem-160976054 PubChem-160976055 PubChem-45480521 PubChem-87361682 ZINC000116862995
 36 41 0 0 0
SMALL
GASTEIGER

@<TRIPOS>ATOM
      1 C          13.2694   40.6548    8.6651 C.ar    1  UNL1        0.0477
      2 C          12.9444   39.7763    7.6354 C.ar    1  UNL1        0.1047
      3 C          10.9289   40.6950    8.0104 C.ar    1  UNL1        0.1653
      4 N          11.6332   39.8037    7.2776 N.ar    1  UNL1       -0.2227
      5 S          11.8875   41.4889    9.1364 S.2     1  UNL1       -0.0540
      6 C           8.8471   42.1227    8.2656 C.2     1  UNL1        0.2304
      7 N           9.5270   40.9310    7.8543 N.am    1  UNL1       -0.2639
      8 O           9.4700   43.0605    8.8344 O.2     1  UNL1       -0.2744
      9 H           8.9895   40.2219    7.4330 H       1  UNL1        0.1567
     10 C           7.3906   42.2771    7.9777 C.3     1  UNL1        0.0880
     11 C           7.0214   43.3039    6.9253 C.3     1  UNL1        0.0135
     12 C           6.9546   41.8188    6.6002 C.3     1  UNL1        0.0135
     13 C           6.3954   42.0579    9.0750 C.ar    1  UNL1       -0.0114
     14 C           5.0451   42.4211    8.8867 C.ar    1  UNL1        0.0364
     15 C           4.1692   42.2305    9.9534 C.ar    1  UNL1        0.1761
     16 C           4.5816   41.7248   11.1436 C.ar    1  UNL1        0.1764
     17 C           5.9062   41.3652   11.3759 C.ar    1  UNL1        0.0399
     18 C           6.8214   41.5414   10.3222 C.ar    1  UNL1       -0.0005
     19 C           2.3447   42.1291   11.3183 C.3     1  UNL1        0.4294
     20 O           3.5070   41.6444   12.0073 O.3     1  UNL1       -0.4346
     21 O           2.8135   42.4923   10.0114 O.3     1  UNL1       -0.4346
     22 C          14.6267   40.8575    9.2668 C.3     1  UNL1        0.1115
     23 C          16.8009   38.8378   11.3960 C.3     1  UNL1        0.0480
     24 C          16.5886   39.7650   10.2217 C.3     1  UNL1        0.0752
     25 C          14.4510   39.1845   10.9647 C.3     1  UNL1        0.1022
     26 C          15.4216   38.5456   11.9362 C.3     1  UNL1        0.1278
     27 N          15.2026   39.6044    9.7881 N.3     1  UNL1       -0.2642
     28 O          15.2178   37.1673   11.9582 O.3     1  UNL1       -0.3830
     29 H          15.3303   36.8095   11.0637 H       1  UNL1        0.2104
     30 C          15.5473   41.7104    8.4144 C.ar    1  UNL1        0.0075
     31 C          16.9425   41.5885    8.5231 C.ar    1  UNL1       -0.0018
     32 C          17.7889   42.3652    7.7281 C.ar    1  UNL1       -0.0002
     33 C          17.2484   43.2662    6.8082 C.ar    1  UNL1        0.0008
     34 C          15.8621   43.3878    6.6818 C.ar    1  UNL1        0.0111
     35 C          15.0091   42.6142    7.4766 C.ar    1  UNL1        0.0553
     36 CL         13.2748   42.8170    7.2875 Cl      1  UNL1       -0.0825
@<TRIPOS>BOND
     1    23    24    1
     2    24    27    1
     3    25    27    1
     4    25    26    1
     5    26    28    1
     6    26    23    1
     7    22    27    1
     8    22    30    1
     9    22     1    1
    10    31    32   ar
    11    33    34   ar
    12    35    36    1
    13    35    30   ar
    14     1     5   ar
    15     2     4   ar
    16     3     5   ar
    17     3     7    1
    18    10     6    1
    19    10    11    1
    20    10    13    1
    21    11    12    1
    22    12    10    1
    23    14    15   ar
    24    15    21    1
    25    16    17   ar
    26    16    20    1
    27    18    13   ar
    28    19    20    1
    29    19    21    1
    30     7     6   am
    31    30    31   ar
    32    32    33   ar
    33    34    35   ar
    34     1     2   ar
    35     3     4   ar
    36     6     8    2
    37    13    14   ar
    38    15    16   ar
    39    17    18   ar
    40     7     9    1
    41    28    29    1
@<TRIPOS>MOLECULE
MolPort-038-935-636 MCULE-3364464604 MCULE-5536987923 PubChem-160976054 PubChem-160976055 PubChem-45480521 PubChem-87361682 ZINC000116862995
 36 41 0 0 0
SMALL
GASTEIGER

@<TRIPOS>ATOM
      1 C          12.5183   39.4587    9.7094 C.ar    1  UNL1        0.0477
      2 C          11.9387   38.7032    8.6942 C.ar    1  UNL1        0.1047
      3 C          10.2842   40.1748    9.0736 C.ar    1  UNL1        0.1653
      4 N          10.6886   39.1091    8.3468 N.ar    1  UNL1       -0.2227
      5 S          11.4461   40.6651   10.1811 S.2     1  UNL1       -0.0540
      6 C           8.6778   41.7457    7.8951 C.2     1  UNL1        0.2304
      7 N           9.0107   40.8087    8.9260 N.am    1  UNL1       -0.2639
      8 O           9.5336   42.0970    7.0377 O.2     1  UNL1       -0.2744
      9 H           8.3112   40.5844    9.5814 H       1  UNL1        0.1567
     10 C           7.2870   42.2807    7.8063 C.3     1  UNL1        0.0880
     11 C           7.1117   43.5615    7.0145 C.3     1  UNL1        0.0135
     12 C           6.6655   42.2315    6.4246 C.3     1  UNL1        0.0135
     13 C           6.3407   42.0658    8.9468 C.ar    1  UNL1       -0.0114
     14 C           4.9708   42.3673    8.7943 C.ar    1  UNL1        0.0364
     15 C           4.1414   42.1845    9.8989 C.ar    1  UNL1        0.1761
     16 C           4.6157   41.7431   11.0917 C.ar    1  UNL1        0.1764
     17 C           5.9613   41.4459   11.2889 C.ar    1  UNL1        0.0399
     18 C           6.8310   41.6163   10.1964 C.ar    1  UNL1       -0.0005
     19 C           2.3716   42.0649   11.3325 C.3     1  UNL1        0.4294
     20 O           3.5762   41.6544   11.9966 O.3     1  UNL1       -0.4346
     21 O           2.7790   42.3944    9.9964 O.3     1  UNL1       -0.4346
     22 C          13.8826   39.2619   10.2972 C.3     1  UNL1        0.1115
     23 C          13.1941   35.6766   10.4012 C.3     1  UNL1        0.0480
     24 C          13.1119   37.0584   11.0077 C.3     1  UNL1        0.0752
     25 C          14.5256   37.2613    9.1588 C.3     1  UNL1        0.1022
     26 C          14.0253   35.8317    9.1504 C.3     1  UNL1        0.1278
     27 N          14.2221   37.8369   10.4634 N.3     1  UNL1       -0.2642
     28 O          15.1103   34.9590    9.2071 O.3     1  UNL1       -0.3830
     29 H          15.6322   35.1434   10.0036 H       1  UNL1        0.2104
     30 C          14.9495   40.1315    9.6592 C.ar    1  UNL1        0.0075
     31 C          14.6200   41.0364    8.6366 C.ar    1  UNL1       -0.0018
     32 C          15.6013   41.8459    8.0590 C.ar    1  UNL1       -0.0002
     33 C          16.9221   41.7658    8.5052 C.ar    1  UNL1        0.0008
     34 C          17.2603   40.8785    9.5304 C.ar    1  UNL1        0.0111
     35 C          16.2825   40.0636   10.1113 C.ar    1  UNL1        0.0553
     36 CL         16.7644   38.9559   11.3862 Cl      1  UNL1       -0.0825
@<TRIPOS>BOND
     1    23    24    1
     2    24    27    1
     3    25    27    1
     4    25    26    1
     5    26    28    1
     6    26    23    1
     7    22    27    1
     8    22    30    1
     9    22     1    1
    10    31    32   ar
    11    33    34   ar
    12    35    36    1
    13    35    30   ar
    14     1     5   ar
    15     2     4   ar
    16     3     5   ar
    17     3     7    1
    18    10     6    1
    19    10    11    1
    20    10    13    1
    21    11    12    1
    22    12    10    1
    23    14    15   ar
    24    15    21    1
    25    16    17   ar
    26    16    20    1
    27    18    13   ar
    28    19    20    1
    29    19    21    1
    30     7     6   am
    31    30    31   ar
    32    32    33   ar
    33    34    35   ar
    34     1     2   ar
    35     3     4   ar
    36     6     8    2
    37    13    14   ar
    38    15    16   ar
    39    17    18   ar
    40     7     9    1
    41    28    29    1
@<TRIPOS>MOLECULE
MolPort-038-935-636 MCULE-3364464604 MCULE-5536987923 PubChem-160976054 PubChem-160976055 PubChem-45480521 PubChem-87361682 ZINC000116862995
 36 41 0 0 0
SMALL
GASTEIGER

@<TRIPOS>ATOM
      1 C           9.3057   40.7114    8.6936 C.ar    1  UNL1        0.0477
      2 C           9.6832   39.4449    8.2564 C.ar    1  UNL1        0.1047
      3 C          11.7084   40.3594    8.5862 C.ar    1  UNL1        0.1653
      4 N          11.0283   39.2578    8.1971 N.ar    1  UNL1       -0.2227
      5 S          10.6846   41.6173    9.0183 S.2     1  UNL1       -0.0540
      6 C          13.9601   39.9911    9.6959 C.2     1  UNL1        0.2304
      7 N          13.1353   40.4504    8.6187 N.am    1  UNL1       -0.2639
      8 O          13.4501   39.4807   10.7304 O.2     1  UNL1       -0.2744
      9 H          13.5838   40.8590    7.8434 H       1  UNL1        0.1567
     10 C          15.4456   40.0761    9.5749 C.3     1  UNL1        0.0880
     11 C          16.2449   39.5075   10.7307 C.3     1  UNL1        0.0135
     12 C          16.1556   38.7463    9.4160 C.3     1  UNL1        0.0135
     13 C          16.0603   41.2270    8.8400 C.ar    1  UNL1       -0.0114
     14 C          15.2929   41.9643    7.9136 C.ar    1  UNL1        0.0364
     15 C          15.9250   43.0008    7.2298 C.ar    1  UNL1        0.1761
     16 C          17.2344   43.3006    7.4251 C.ar    1  UNL1        0.1764
     17 C          18.0306   42.5912    8.3199 C.ar    1  UNL1        0.0399
     18 C          17.4282   41.5375    9.0310 C.ar    1  UNL1       -0.0005
     19 C          16.4285   44.7646    5.8744 C.3     1  UNL1        0.4294
     20 O          17.5876   44.3671    6.6219 O.3     1  UNL1       -0.4346
     21 O          15.3911   43.8658    6.2936 O.3     1  UNL1       -0.4346
     22 C           7.9040   41.2106    8.8710 C.3     1  UNL1        0.1115
     23 C           6.5431   41.1940   12.2602 C.3     1  UNL1        0.0480
     24 C           6.3731   41.3459   10.7663 C.3     1  UNL1        0.0752
     25 C           8.6773   41.2249   11.1324 C.3     1  UNL1        0.1022
     26 C           8.0255   41.0145   12.4833 C.3     1  UNL1        0.1278
     27 N           7.6672   41.7508   10.2221 N.3     1  UNL1       -0.2642
     28 O           8.4782   41.9855   13.3743 O.3     1  UNL1       -0.3830
     29 H           8.2779   42.8666   13.0216 H       1  UNL1        0.2104
     30 C           7.4129   42.0634    7.7164 C.ar    1  UNL1        0.0075
     31 C           7.4661   43.4653    7.7872 C.ar    1  UNL1       -0.0018
     32 C           7.0256   44.2492    6.7179 C.ar    1  UNL1       -0.0002
     33 C           6.5355   43.6386    5.5616 C.ar    1  UNL1        0.0008
     34 C           6.4890   42.2447    5.4741 C.ar    1  UNL1        0.0111
     35 C           6.9268   41.4542    6.5424 C.ar    1  UNL1        0.0553
     36 CL          6.8328   39.7074    6.3854 Cl      1  UNL1       -0.0825
@<TRIPOS>BOND
     1    23    24    1
     2    24    27    1
     3    25    27    1
     4    25    26    1
     5    26    28    1
     6    26    23    1
     7    22    27    1
     8    22    30    1
     9    22     1    1
    10    31    32   ar
    11    33    34   ar
    12    35    36    1
    13    35    30   ar
    14     1     5   ar
    15     2     4   ar
    16     3     5   ar
    17     3     7    1
    18    10     6    1
    19    10    11    1
    20    10    13    1
    21    11    12    1
    22    12    10    1
    23    14    15   ar
    24    15    21    1
    25    16    17   ar
    26    16    20    1
    27    18    13   ar
    28    19    20    1
    29    19    21    1
    30     7     6   am
    31    30    31   ar
    32    32    33   ar
    33    34    35   ar
    34     1     2   ar
    35     3     4   ar
    36     6     8    2
    37    13    14   ar
    38    15    16   ar
    39    17    18   ar
    40     7     9    1
    41    28    29    1
@<TRIPOS>MOLECULE
MolPort-038-935-636 MCULE-3364464604 MCULE-5536987923 PubChem-160976054 PubChem-160976055 PubChem-45480521 PubChem-87361682 ZINC000116862995
 36 41 0 0 0
SMALL
GASTEIGER

@<TRIPOS>ATOM
      1 C           7.2225   40.9785    7.9905 C.ar    1  UNL1        0.0477
      2 C           7.5642   40.3060    6.8207 C.ar    1  UNL1        0.1047
      3 C           9.6089   40.6227    7.6956 C.ar    1  UNL1        0.1653
      4 N           8.9006   40.1137    6.6628 N.ar    1  UNL1       -0.2227
      5 S           8.6223   41.3371    8.8504 S.2     1  UNL1       -0.0540
      6 C          11.7684   40.4836    9.0201 C.2     1  UNL1        0.2304
      7 N          11.0347   40.5694    7.7930 N.am    1  UNL1       -0.2639
      8 O          11.1727   40.4742   10.1319 O.2     1  UNL1       -0.2744
      9 H          11.5501   40.5934    6.9545 H       1  UNL1        0.1567
     10 C          13.2554   40.3587    8.9828 C.3     1  UNL1        0.0880
     11 C          13.8983   39.6587   10.1639 C.3     1  UNL1        0.0135
     12 C          13.7789   38.9449    8.8252 C.3     1  UNL1        0.0135
     13 C          14.0679   41.4251    8.3154 C.ar    1  UNL1       -0.0114
     14 C          13.4402   42.3703    7.4769 C.ar    1  UNL1        0.0364
     15 C          14.2483   43.3174    6.8511 C.ar    1  UNL1        0.1761
     16 C          15.5949   43.3409    7.0202 C.ar    1  UNL1        0.1764
     17 C          16.2557   42.4199    7.8283 C.ar    1  UNL1        0.0399
     18 C          15.4738   41.4482    8.4788 C.ar    1  UNL1       -0.0005
     19 C          15.0585   45.0553    5.6163 C.3     1  UNL1        0.4294
     20 O          16.1330   44.3810    6.2880 O.3     1  UNL1       -0.4346
     21 O          13.8744   44.3431    6.0039 O.3     1  UNL1       -0.4346
     22 C           5.8377   41.3272    8.4446 C.3     1  UNL1        0.1115
     23 C           4.5181   41.7018   11.8296 C.3     1  UNL1        0.0480
     24 C           5.5220   42.0482   10.7544 C.3     1  UNL1        0.0752
     25 C           4.2826   40.2567    9.9102 C.3     1  UNL1        0.1022
     26 C           3.6539   40.6124   11.2414 C.3     1  UNL1        0.1278
     27 N           5.5823   40.9131    9.8363 N.3     1  UNL1       -0.2642
     28 O           3.6803   39.5000   12.0802 O.3     1  UNL1       -0.3830
     29 H           4.5965   39.2021   12.1934 H       1  UNL1        0.2104
     30 C           5.4173   42.7389    8.0813 C.ar    1  UNL1        0.0075
     31 C           4.2891   43.3268    8.6770 C.ar    1  UNL1       -0.0018
     32 C           3.9108   44.6316    8.3512 C.ar    1  UNL1       -0.0002
     33 C           4.6629   45.3664    7.4323 C.ar    1  UNL1        0.0008
     34 C           5.7944   44.7971    6.8421 C.ar    1  UNL1        0.0111
     35 C           6.1773   43.4901    7.1627 C.ar    1  UNL1        0.0553
     36 CL          7.5993   42.8182    6.3809 Cl      1  UNL1       -0.0825
@<TRIPOS>BOND
     1    23    24    1
     2    24    27    1
     3    25    27    1
     4    25    26    1
     5    26    28    1
     6    26    23    1
     7    22    27    1
     8    22    30    1
     9    22     1    1
    10    31    32   ar
    11    33    34   ar
    12    35    36    1
    13    35    30   ar
    14     1     5   ar
    15     2     4   ar
    16     3     5   ar
    17     3     7    1
    18    10     6    1
    19    10    11    1
    20    10    13    1
    21    11    12    1
    22    12    10    1
    23    14    15   ar
    24    15    21    1
    25    16    17   ar
    26    16    20    1
    27    18    13   ar
    28    19    20    1
    29    19    21    1
    30     7     6   am
    31    30    31   ar
    32    32    33   ar
    33    34    35   ar
    34     1     2   ar
    35     3     4   ar
    36     6     8    2
    37    13    14   ar
    38    15    16   ar
    39    17    18   ar
    40     7     9    1
    41    28    29    1
@<TRIPOS>MOLECULE
MolPort-038-935-636 MCULE-3364464604 MCULE-5536987923 PubChem-160976054 PubChem-160976055 PubChem-45480521 PubChem-87361682 ZINC000116862995
 36 41 0 0 0
SMALL
GASTEIGER

@<TRIPOS>ATOM
      1 C           8.3384   42.3261    9.2428 C.ar    1  UNL1        0.0477
      2 C           9.0112   43.2549   10.0317 C.ar    1  UNL1        0.1047
      3 C          10.5110   41.5824   10.0399 C.ar    1  UNL1        0.1653
      4 N          10.2239   42.8296   10.4749 N.ar    1  UNL1       -0.2227
      5 S           9.2827   40.9430    9.0914 S.2     1  UNL1       -0.0540
      6 C          11.9469   39.4914   10.0961 C.2     1  UNL1        0.2304
      7 N          11.7165   40.8809   10.3562 N.am    1  UNL1       -0.2639
      8 O          11.0518   38.7730    9.5729 O.2     1  UNL1       -0.2744
      9 H          12.4417   41.3909   10.7844 H       1  UNL1        0.1567
     10 C          13.2793   38.8943   10.4067 C.3     1  UNL1        0.0880
     11 C          14.4652   39.8369   10.3488 C.3     1  UNL1        0.0135
     12 C          13.9180   39.3793   11.6930 C.3     1  UNL1        0.0135
     13 C          13.5457   37.4634   10.0543 C.ar    1  UNL1       -0.0114
     14 C          14.6594   37.1284    9.2554 C.ar    1  UNL1        0.0364
     15 C          14.8389   35.7864    8.9261 C.ar    1  UNL1        0.1761
     16 C          13.9790   34.8211    9.3397 C.ar    1  UNL1        0.1764
     17 C          12.8617   35.1094   10.1184 C.ar    1  UNL1        0.0399
     18 C          12.6466   36.4535   10.4733 C.ar    1  UNL1       -0.0005
     19 C          15.6069   33.7981    8.1147 C.3     1  UNL1        0.4294
     20 O          14.4039   33.5937    8.8705 O.3     1  UNL1       -0.4346
     21 O          15.8475   35.2116    8.1764 O.3     1  UNL1       -0.4346
     22 C           6.9948   42.5075    8.6049 C.3     1  UNL1        0.1115
     23 C           8.2422   40.5790    5.7650 C.3     1  UNL1        0.0480
     24 C           8.1539   41.8635    6.5564 C.3     1  UNL1        0.0752
     25 C           6.5864   40.4201    7.5146 C.3     1  UNL1        0.1022
     26 C           7.3023   39.6159    6.4493 C.3     1  UNL1        0.1278
     27 N           6.8966   41.8284    7.2999 N.3     1  UNL1       -0.2642
     28 O           6.3751   39.1409    5.5238 O.3     1  UNL1       -0.3830
     29 H           5.8943   39.8883    5.1352 H       1  UNL1        0.2104
     30 C           5.8355   42.2892    9.5589 C.ar    1  UNL1        0.0075
     31 C           5.9399   41.3695   10.6155 C.ar    1  UNL1       -0.0018
     32 C           4.8763   41.1792   11.5011 C.ar    1  UNL1       -0.0002
     33 C           3.6993   41.9143   11.3449 C.ar    1  UNL1        0.0008
     34 C           3.5877   42.8412   10.3052 C.ar    1  UNL1        0.0111
     35 C           4.6487   43.0349    9.4138 C.ar    1  UNL1        0.0553
     36 CL          4.4501   44.2018    8.1162 Cl      1  UNL1       -0.0825
@<TRIPOS>BOND
     1    23    24    1
     2    24    27    1
     3    25    27    1
     4    25    26    1
     5    26    28    1
     6    26    23    1
     7    22    27    1
     8    22    30    1
     9    22     1    1
    10    31    32   ar
    11    33    34   ar
    12    35    36    1
    13    35    30   ar
    14     1     5   ar
    15     2     4   ar
    16     3     5   ar
    17     3     7    1
    18    10     6    1
    19    10    11    1
    20    10    13    1
    21    11    12    1
    22    12    10    1
    23    14    15   ar
    24    15    21    1
    25    16    17   ar
    26    16    20    1
    27    18    13   ar
    28    19    20    1
    29    19    21    1
    30     7     6   am
    31    30    31   ar
    32    32    33   ar
    33    34    35   ar
    34     1     2   ar
    35     3     4   ar
    36     6     8    2
    37    13    14   ar
    38    15    16   ar
    39    17    18   ar
    40     7     9    1
    41    28    29    1
@<TRIPOS>MOLECULE
MolPort-038-935-636 MCULE-3364464604 MCULE-5536987923 PubChem-160976054 PubChem-160976055 PubChem-45480521 PubChem-87361682 ZINC000116862995
 36 41 0 0 0
SMALL
GASTEIGER

@<TRIPOS>ATOM
      1 C          14.0719   40.3077   10.0686 C.ar    1  UNL1        0.0477
      2 C          13.8440   39.6099   11.2513 C.ar    1  UNL1        0.1047
      3 C          11.7479   40.2661   10.7797 C.ar    1  UNL1        0.1653
      4 N          12.5422   39.5939   11.6426 N.ar    1  UNL1       -0.2227
      5 S          12.6123   40.9150    9.4956 S.2     1  UNL1       -0.0540
      6 C           9.6706   41.6577   11.2107 C.2     1  UNL1        0.2304
      7 N          10.3351   40.4174   10.9426 N.am    1  UNL1       -0.2639
      8 O          10.3252   42.7271   11.3475 O.2     1  UNL1       -0.2744
      9 H           9.7781   39.6094   10.8648 H       1  UNL1        0.1567
     10 C           8.1802   41.6945   11.2851 C.3     1  UNL1        0.0880
     11 C           7.5286   40.6558   12.1766 C.3     1  UNL1        0.0135
     12 C           7.6127   42.1062   12.6290 C.3     1  UNL1        0.0135
     13 C           7.3935   42.1371   10.0902 C.ar    1  UNL1       -0.0114
     14 C           8.0345   42.3018    8.8441 C.ar    1  UNL1        0.0364
     15 C           7.2633   42.7520    7.7745 C.ar    1  UNL1        0.1761
     16 C           5.9430   43.0378    7.9074 C.ar    1  UNL1        0.1764
     17 C           5.2746   42.9011    9.1208 C.ar    1  UNL1        0.0399
     18 C           6.0189   42.4474   10.2248 C.ar    1  UNL1       -0.0005
     19 C           6.5059   43.4325    5.7337 C.3     1  UNL1        0.4294
     20 O           5.4377   43.4566    6.6922 O.3     1  UNL1       -0.4346
     21 O           7.6520   42.9771    6.4677 O.3     1  UNL1       -0.4346
     22 C          15.3921   40.4918    9.3842 C.3     1  UNL1        0.1115
     23 C          16.9789   37.3031   10.1930 C.3     1  UNL1        0.0480
     24 C          17.0044   38.8122   10.1148 C.3     1  UNL1        0.0752
     25 C          15.0451   38.1545    9.0252 C.3     1  UNL1        0.1022
     26 C          15.6640   36.8876    9.5784 C.3     1  UNL1        0.1278
     27 N          16.0511   39.2083    9.0808 N.3     1  UNL1       -0.2642
     28 O          15.9043   35.9941    8.5365 O.3     1  UNL1       -0.3830
     29 H          16.4851   36.4107    7.8807 H       1  UNL1        0.2104
     30 C          15.3546   41.5051    8.2558 C.ar    1  UNL1        0.0075
     31 C          14.2117   41.6390    7.4500 C.ar    1  UNL1       -0.0018
     32 C          14.1738   42.5817    6.4196 C.ar    1  UNL1       -0.0002
     33 C          15.2760   43.4078    6.1899 C.ar    1  UNL1        0.0008
     34 C          16.4141   43.2928    6.9925 C.ar    1  UNL1        0.0111
     35 C          16.4590   42.3493    8.0247 C.ar    1  UNL1        0.0553
     36 CL         17.9195   42.2368    8.9938 Cl      1  UNL1       -0.0825
@<TRIPOS>BOND
     1    23    24    1
     2    24    27    1
     3    25    27    1
     4    25    26    1
     5    26    28    1
     6    26    23    1
     7    22    27    1
     8    22    30    1
     9    22     1    1
    10    31    32   ar
    11    33    34   ar
    12    35    36    1
    13    35    30   ar
    14     1     5   ar
    15     2     4   ar
    16     3     5   ar
    17     3     7    1
    18    10     6    1
    19    10    11    1
    20    10    13    1
    21    11    12    1
    22    12    10    1
    23    14    15   ar
    24    15    21    1
    25    16    17   ar
    26    16    20    1
    27    18    13   ar
    28    19    20    1
    29    19    21    1
    30     7     6   am
    31    30    31   ar
    32    32    33   ar
    33    34    35   ar
    34     1     2   ar
    35     3     4   ar
    36     6     8    2
    37    13    14   ar
    38    15    16   ar
    39    17    18   ar
    40     7     9    1
    41    28    29    1
@<TRIPOS>MOLECULE
MolPort-038-935-636 MCULE-3364464604 MCULE-5536987923 PubChem-160976054 PubChem-160976055 PubChem-45480521 PubChem-87361682 ZINC000116862995
 36 41 0 0 0
SMALL
GASTEIGER

@<TRIPOS>ATOM
      1 C          13.0563   40.3309    9.5071 C.ar    1  UNL1        0.0477
      2 C          12.4589   40.1392   10.7497 C.ar    1  UNL1        0.1047
      3 C          10.6261   40.3634    9.4702 C.ar    1  UNL1        0.1653
      4 N          11.1001   40.1613   10.7200 N.ar    1  UNL1       -0.2227
      5 S          11.8589   40.5281    8.3432 S.2     1  UNL1       -0.0540
      6 C           8.6636   41.3638    8.2113 C.2     1  UNL1        0.2304
      7 N           9.2360   40.4384    9.1427 N.am    1  UNL1       -0.2639
      8 O           9.3815   42.2164    7.6207 O.2     1  UNL1       -0.2744
      9 H           8.6274   39.8074    9.5907 H       1  UNL1        0.1567
     10 C           7.2054   41.2901    7.9006 C.3     1  UNL1        0.0880
     11 C           6.7802   41.8341    6.5509 C.3     1  UNL1        0.0135
     12 C           6.8321   40.3317    6.7871 C.3     1  UNL1        0.0135
     13 C           6.2084   41.4069    9.0119 C.ar    1  UNL1       -0.0114
     14 C           4.8388   41.5738    8.7173 C.ar    1  UNL1        0.0364
     15 C           3.9592   41.7153    9.7887 C.ar    1  UNL1        0.1761
     16 C           4.3853   41.7063   11.0774 C.ar    1  UNL1        0.1764
     17 C           5.7283   41.5567   11.4120 C.ar    1  UNL1        0.0399
     18 C           6.6478   41.4095   10.3576 C.ar    1  UNL1       -0.0005
     19 C           2.1217   41.9751   11.1145 C.3     1  UNL1        0.4294
     20 O           3.3033   41.8618   11.9215 O.3     1  UNL1       -0.4346
     21 O           2.5871   41.8764    9.7604 O.3     1  UNL1       -0.4346
     22 C          14.5269   40.3485    9.2198 C.3     1  UNL1        0.1115
     23 C          15.4307   36.8768    9.9051 C.3     1  UNL1        0.0480
     24 C          15.6841   38.3609   10.0351 C.3     1  UNL1        0.0752
     25 C          13.9449   38.1483    8.4897 C.3     1  UNL1        0.1022
     26 C          14.2411   36.7478    8.9845 C.3     1  UNL1        0.1278
     27 N          15.0505   39.0104    8.8899 N.3     1  UNL1       -0.2642
     28 O          14.5801   35.9351    7.9045 O.3     1  UNL1       -0.3830
     29 H          15.3450   36.3132    7.4430 H       1  UNL1        0.2104
     30 C          14.9518   41.4765    8.2985 C.ar    1  UNL1        0.0075
     31 C          14.0284   42.0762    7.4262 C.ar    1  UNL1       -0.0018
     32 C          14.4180   43.1237    6.5878 C.ar    1  UNL1       -0.0002
     33 C          15.7342   43.5892    6.6198 C.ar    1  UNL1        0.0008
     34 C          16.6591   43.0091    7.4921 C.ar    1  UNL1        0.0111
     35 C          16.2755   41.9585    8.3327 C.ar    1  UNL1        0.0553
     36 CL         17.4814   41.2559    9.3990 Cl      1  UNL1       -0.0825
@<TRIPOS>BOND
     1    23    24    1
     2    24    27    1
     3    25    27    1
     4    25    26    1
     5    26    28    1
     6    26    23    1
     7    22    27    1
     8    22    30    1
     9    22     1    1
    10    31    32   ar
    11    33    34   ar
    12    35    36    1
    13    35    30   ar
    14     1     5   ar
    15     2     4   ar
    16     3     5   ar
    17     3     7    1
    18    10     6    1
    19    10    11    1
    20    10    13    1
    21    11    12    1
    22    12    10    1
    23    14    15   ar
    24    15    21    1
    25    16    17   ar
    26    16    20    1
    27    18    13   ar
    28    19    20    1
    29    19    21    1
    30     7     6   am
    31    30    31   ar
    32    32    33   ar
    33    34    35   ar
    34     1     2   ar
    35     3     4   ar
    36     6     8    2
    37    13    14   ar
    38    15    16   ar
    39    17    18   ar
    40     7     9    1
    41    28    29    1
