@<TRIPOS>MOLECULE
MolPort-007-723-652 CHEMBL1533885 ChemDiv-E157-7157 MCULE-1767363288 PubChem-16017540 ZINC000008588143 ZINC08588143
 30 32 0 0 0
SMALL
GASTEIGER

@<TRIPOS>ATOM
      1 C           8.9829   41.6405    6.5408 C.ar    1  UNL1        0.2593
      2 C          11.3577   41.8324    6.6936 C.ar    1  UNL1        0.1896
      3 N           9.5995   41.5319    5.3439 N.ar    1  UNL1       -0.1187
      4 N          10.9240   41.6397    5.4280 N.ar    1  UNL1       -0.1239
      5 S          10.0846   41.8786    7.7923 S.2     1  UNL1       -0.0102
      6 C          13.6052   43.0152    6.5957 C.2     1  UNL1        0.2509
      7 N          12.7326   41.9773    7.0615 N.am    1  UNL1       -0.2592
      8 O          13.1803   43.8958    5.7987 O.2     1  UNL1       -0.2698
      9 H          13.1088   41.3127    7.6827 H       1  UNL1        0.1571
     10 C          15.0062   43.0531    7.0503 C.ar    1  UNL1        0.0539
     11 C          15.5020   42.0555    7.9027 C.ar    1  UNL1        0.0068
     12 C          16.8311   42.0905    8.3346 C.ar    1  UNL1        0.0298
     13 C          17.6744   43.1237    7.9172 C.ar    1  UNL1        0.1401
     14 C          17.1891   44.1217    7.0680 C.ar    1  UNL1        0.0298
     15 C          15.8600   44.0867    6.6361 C.ar    1  UNL1        0.0068
     16 F          18.9621   43.1575    8.3356 F       1  UNL1       -0.2042
     17 S           7.2486   41.5213    6.7541 S.O2    1  UNL1        0.1010
     18 O           6.9060   40.1960    7.3749 O.2     1  UNL1       -0.1477
     19 O           6.5756   41.6131    5.4135 O.2     1  UNL1       -0.1477
     20 N           6.6965   42.7991    7.7985 N.pl3   1  UNL1       -0.1891
     21 C           5.7680   42.5096    8.8610 C.ar    1  UNL1        0.0649
     22 C           4.5585   43.2277    9.0126 C.ar    1  UNL1       -0.0073
     23 C           4.1358   44.2820    8.0484 C.3     1  UNL1        0.0324
     24 C           3.6919   42.9208   10.0668 C.ar    1  UNL1       -0.0072
     25 C           4.0110   41.9096   10.9745 C.ar    1  UNL1       -0.0221
     26 C           3.0834   41.5935   12.0915 C.3     1  UNL1        0.0310
     27 C           5.1964   41.1896   10.8269 C.ar    1  UNL1       -0.0030
     28 C           6.0667   41.4879    9.7770 C.ar    1  UNL1        0.0155
     29 C           7.9169   44.4065    9.1833 C.3     1  UNL1        0.0252
     30 C           7.4136   44.0698    7.7913 C.3     1  UNL1        0.1160
@<TRIPOS>BOND
     1    29    30    1
     2    30    20    1
     3    22    24   ar
     4    23    22    1
     5    25    27   ar
     6    26    25    1
     7    28    21   ar
     8     1     5   ar
     9     2     7    1
    10     2     5   ar
    11     6    10    1
    12    11    12   ar
    13    13    16    1
    14    13    14   ar
    15    15    10   ar
    16    20    21    1
    17     3     4   ar
    18     7     6   am
    19    17    20    1
    20    17     1    1
    21    21    22   ar
    22    24    25   ar
    23    27    28   ar
    24     1     3   ar
    25     2     4   ar
    26     6     8    2
    27    10    11   ar
    28    12    13   ar
    29    14    15   ar
    30    17    18    2
    31    17    19    2
    32     7     9    1
@<TRIPOS>MOLECULE
MolPort-007-723-652 CHEMBL1533885 ChemDiv-E157-7157 MCULE-1767363288 PubChem-16017540 ZINC000008588143 ZINC08588143
 30 32 0 0 0
SMALL
GASTEIGER

@<TRIPOS>ATOM
      1 C           9.5638   40.5272    7.0705 C.ar    1  UNL1        0.2593
      2 C           7.6737   41.9794    7.2046 C.ar    1  UNL1        0.1896
      3 N           9.9050   41.8250    7.2250 N.ar    1  UNL1       -0.1187
      4 N           8.8514   42.6358    7.2989 N.ar    1  UNL1       -0.1239
      5 S           7.8930   40.3217    7.0207 S.2     1  UNL1       -0.0102
      6 C           6.1431   43.9297    7.7647 C.2     1  UNL1        0.2509
      7 N           6.3916   42.6120    7.2571 N.am    1  UNL1       -0.2592
      8 O           7.0920   44.6304    8.2117 O.2     1  UNL1       -0.2698
      9 H           5.6200   42.1030    6.9185 H       1  UNL1        0.1571
     10 C           4.7716   44.4681    7.7645 C.ar    1  UNL1        0.0539
     11 C           4.3467   45.3249    6.7384 C.ar    1  UNL1        0.0068
     12 C           3.0457   45.8363    6.7371 C.ar    1  UNL1        0.0298
     13 C           2.1597   45.4944    7.7623 C.ar    1  UNL1        0.1401
     14 C           2.5742   44.6414    8.7886 C.ar    1  UNL1        0.0298
     15 C           3.8754   44.1301    8.7898 C.ar    1  UNL1        0.0068
     16 F           0.8990   45.9898    7.7611 F       1  UNL1       -0.2042
     17 S          10.7282   39.2233    6.9617 S.O2    1  UNL1        0.1010
     18 O          10.7137   38.6479    5.5732 O.2     1  UNL1       -0.1477
     19 O          10.3545   38.1410    7.9351 O.2     1  UNL1       -0.1477
     20 N          12.3219   39.8289    7.3105 N.pl3   1  UNL1       -0.1891
     21 C          13.1534   39.1538    8.2735 C.ar    1  UNL1        0.0649
     22 C          13.5896   39.7892    9.4600 C.ar    1  UNL1       -0.0073
     23 C          13.1650   41.1706    9.8220 C.3     1  UNL1        0.0324
     24 C          14.4066   39.0992   10.3616 C.ar    1  UNL1       -0.0072
     25 C          14.7978   37.7851   10.1002 C.ar    1  UNL1       -0.0221
     26 C          15.6673   37.0626   11.0646 C.3     1  UNL1        0.0310
     27 C          14.3644   37.1473    8.9380 C.ar    1  UNL1       -0.0030
     28 C          13.5476   37.8275    8.0331 C.ar    1  UNL1        0.0155
     29 C          11.8550   41.7689    5.8931 C.3     1  UNL1        0.0252
     30 C          12.9133   40.8088    6.4055 C.3     1  UNL1        0.1160
@<TRIPOS>BOND
     1    29    30    1
     2    30    20    1
     3    22    24   ar
     4    23    22    1
     5    25    27   ar
     6    26    25    1
     7    28    21   ar
     8     1     5   ar
     9     2     7    1
    10     2     5   ar
    11     6    10    1
    12    11    12   ar
    13    13    16    1
    14    13    14   ar
    15    15    10   ar
    16    20    21    1
    17     3     4   ar
    18     7     6   am
    19    17    20    1
    20    17     1    1
    21    21    22   ar
    22    24    25   ar
    23    27    28   ar
    24     1     3   ar
    25     2     4   ar
    26     6     8    2
    27    10    11   ar
    28    12    13   ar
    29    14    15   ar
    30    17    18    2
    31    17    19    2
    32     7     9    1
@<TRIPOS>MOLECULE
MolPort-007-723-652 CHEMBL1533885 ChemDiv-E157-7157 MCULE-1767363288 PubChem-16017540 ZINC000008588143 ZINC08588143
 30 32 0 0 0
SMALL
GASTEIGER

@<TRIPOS>ATOM
      1 C          10.3907   39.2713    7.8644 C.ar    1  UNL1        0.2593
      2 C          12.4226   38.6715    8.9649 C.ar    1  UNL1        0.1896
      3 N          10.5039   39.8135    9.0964 N.ar    1  UNL1       -0.1187
      4 N          11.6364   39.4787    9.7114 N.ar    1  UNL1       -0.1239
      5 S          11.7298   38.3287    7.4708 S.2     1  UNL1       -0.0102
      6 C          14.6887   38.9268   10.0872 C.2     1  UNL1        0.2509
      7 N          13.6933   38.1682    9.3877 N.am    1  UNL1       -0.2592
      8 O          14.4807   40.1363   10.3789 O.2     1  UNL1       -0.2698
      9 H          13.9004   37.2279    9.1823 H       1  UNL1        0.1571
     10 C          15.9619   38.2900   10.4673 C.ar    1  UNL1        0.0539
     11 C          17.0879   38.4072    9.6391 C.ar    1  UNL1        0.0068
     12 C          18.2964   37.8034    9.9986 C.ar    1  UNL1        0.0298
     13 C          18.3878   37.0779   11.1895 C.ar    1  UNL1        0.1401
     14 C          17.2712   36.9560   12.0208 C.ar    1  UNL1        0.0298
     15 C          16.0627   37.5597   11.6611 C.ar    1  UNL1        0.0068
     16 F          19.5587   36.4931   11.5379 F       1  UNL1       -0.2042
     17 S           9.0228   39.5442    6.8052 S.O2    1  UNL1        0.1010
     18 O           7.9894   38.4760    7.0293 O.2     1  UNL1       -0.1477
     19 O           9.4807   39.4784    5.3753 O.2     1  UNL1       -0.1477
     20 N           8.3181   41.0986    7.1452 N.pl3   1  UNL1       -0.1891
     21 C           7.2893   41.2189    8.1461 C.ar    1  UNL1        0.0649
     22 C           5.9379   40.9038    7.8702 C.ar    1  UNL1       -0.0073
     23 C           5.5024   40.3659    6.5509 C.3     1  UNL1        0.0324
     24 C           4.9697   41.0473    8.8694 C.ar    1  UNL1       -0.0072
     25 C           5.3254   41.5010   10.1405 C.ar    1  UNL1       -0.0221
     26 C           4.2879   41.6510   11.1937 C.3     1  UNL1        0.0310
     27 C           6.6569   41.8044   10.4245 C.ar    1  UNL1       -0.0030
     28 C           7.6303   41.6629    9.4340 C.ar    1  UNL1        0.0155
     29 C           9.8096   41.9760    5.4143 C.3     1  UNL1        0.0252
     30 C           8.9894   42.2961    6.6508 C.3     1  UNL1        0.1160
@<TRIPOS>BOND
     1    29    30    1
     2    30    20    1
     3    22    24   ar
     4    23    22    1
     5    25    27   ar
     6    26    25    1
     7    28    21   ar
     8     1     5   ar
     9     2     7    1
    10     2     5   ar
    11     6    10    1
    12    11    12   ar
    13    13    16    1
    14    13    14   ar
    15    15    10   ar
    16    20    21    1
    17     3     4   ar
    18     7     6   am
    19    17    20    1
    20    17     1    1
    21    21    22   ar
    22    24    25   ar
    23    27    28   ar
    24     1     3   ar
    25     2     4   ar
    26     6     8    2
    27    10    11   ar
    28    12    13   ar
    29    14    15   ar
    30    17    18    2
    31    17    19    2
    32     7     9    1
@<TRIPOS>MOLECULE
MolPort-007-723-652 CHEMBL1533885 ChemDiv-E157-7157 MCULE-1767363288 PubChem-16017540 ZINC000008588143 ZINC08588143
 30 32 0 0 0
SMALL
GASTEIGER

@<TRIPOS>ATOM
      1 C           9.4144   41.0934    6.3467 C.ar    1  UNL1        0.2593
      2 C          11.6703   41.8455    6.1346 C.ar    1  UNL1        0.1896
      3 N           9.9753   40.7538    5.1658 N.ar    1  UNL1       -0.1187
      4 N          11.2332   41.1737    5.0462 N.ar    1  UNL1       -0.1239
      5 S          10.4852   41.9508    7.3239 S.2     1  UNL1       -0.0102
      6 C          13.9693   41.9654    7.2117 C.2     1  UNL1        0.2509
      7 N          12.9824   42.3999    6.2667 N.am    1  UNL1       -0.2592
      8 O          13.7148   41.0248    8.0126 O.2     1  UNL1       -0.2698
      9 H          13.2268   43.1371    5.6617 H       1  UNL1        0.1571
     10 C          15.2880   42.6217    7.2476 C.ar    1  UNL1        0.0539
     11 C          15.5618   43.7088    6.4046 C.ar    1  UNL1        0.0068
     12 C          16.8126   44.3323    6.4378 C.ar    1  UNL1        0.0298
     13 C          17.7990   43.8730    7.3147 C.ar    1  UNL1        0.1401
     14 C          17.5351   42.7907    8.1582 C.ar    1  UNL1        0.0298
     15 C          16.2843   42.1672    8.1249 C.ar    1  UNL1        0.0068
     16 F          19.0109   44.4771    7.3470 F       1  UNL1       -0.2042
     17 S           7.7786   40.6655    6.8036 S.O2    1  UNL1        0.1010
     18 O           7.7060   39.1942    7.1019 O.2     1  UNL1       -0.1477
     19 O           6.8482   40.9719    5.6638 O.2     1  UNL1       -0.1477
     20 N           7.3131   41.5580    8.2231 N.pl3   1  UNL1       -0.1891
     21 C           6.2474   42.5240    8.1484 C.ar    1  UNL1        0.0649
     22 C           4.9891   42.2967    8.7539 C.ar    1  UNL1       -0.0073
     23 C           4.7063   41.0771    9.5616 C.3     1  UNL1        0.0324
     24 C           3.9784   43.2576    8.6456 C.ar    1  UNL1       -0.0072
     25 C           4.2002   44.4426    7.9422 C.ar    1  UNL1       -0.0221
     26 C           3.1186   45.4555    7.8324 C.3     1  UNL1        0.0310
     27 C           5.4408   44.6797    7.3506 C.ar    1  UNL1       -0.0030
     28 C           6.4559   43.7271    7.4547 C.ar    1  UNL1        0.0155
     29 C           8.2366   42.2700   10.3751 C.3     1  UNL1        0.0252
     30 C           7.7811   41.0970    9.5260 C.3     1  UNL1        0.1160
@<TRIPOS>BOND
     1    29    30    1
     2    30    20    1
     3    22    24   ar
     4    23    22    1
     5    25    27   ar
     6    26    25    1
     7    28    21   ar
     8     1     5   ar
     9     2     7    1
    10     2     5   ar
    11     6    10    1
    12    11    12   ar
    13    13    16    1
    14    13    14   ar
    15    15    10   ar
    16    20    21    1
    17     3     4   ar
    18     7     6   am
    19    17    20    1
    20    17     1    1
    21    21    22   ar
    22    24    25   ar
    23    27    28   ar
    24     1     3   ar
    25     2     4   ar
    26     6     8    2
    27    10    11   ar
    28    12    13   ar
    29    14    15   ar
    30    17    18    2
    31    17    19    2
    32     7     9    1
@<TRIPOS>MOLECULE
MolPort-007-723-652 CHEMBL1533885 ChemDiv-E157-7157 MCULE-1767363288 PubChem-16017540 ZINC000008588143 ZINC08588143
 30 32 0 0 0
SMALL
GASTEIGER

@<TRIPOS>ATOM
      1 C          11.2692   41.0931    6.6656 C.ar    1  UNL1        0.2593
      2 C          10.1805   41.4828    8.7542 C.ar    1  UNL1        0.1896
      3 N          10.6973   42.3143    6.7431 N.ar    1  UNL1       -0.1187
      4 N          10.0890   42.5323    7.9074 N.ar    1  UNL1       -0.1239
      5 S          11.0422   40.2056    8.0788 S.2     1  UNL1       -0.0102
      6 C          10.3544   41.6391   11.2851 C.2     1  UNL1        0.2509
      7 N           9.6173   41.4563   10.0690 N.am    1  UNL1       -0.2592
      8 O          11.5988   41.8430   11.2521 O.2     1  UNL1       -0.2698
      9 H           8.6481   41.3005   10.1447 H       1  UNL1        0.1571
     10 C           9.6543   41.5880   12.5807 C.ar    1  UNL1        0.0539
     11 C          10.0548   40.6748   13.5671 C.ar    1  UNL1        0.0068
     12 C           9.3914   40.6255   14.7966 C.ar    1  UNL1        0.0298
     13 C           8.3224   41.4895   15.0487 C.ar    1  UNL1        0.1401
     14 C           7.9166   42.4026   14.0719 C.ar    1  UNL1        0.0298
     15 C           8.5800   42.4518   12.8423 C.ar    1  UNL1        0.0068
     16 F           7.6797   41.4418   16.2401 F       1  UNL1       -0.2042
     17 S          12.1577   40.5239    5.2677 S.O2    1  UNL1        0.1010
     18 O          13.6319   40.5549    5.5593 O.2     1  UNL1       -0.1477
     19 O          11.8791   41.4279    4.0999 O.2     1  UNL1       -0.1477
     20 N          11.6849   38.8908    4.8967 N.pl3   1  UNL1       -0.1891
     21 C          10.4919   38.6439    4.1284 C.ar    1  UNL1        0.0649
     22 C           9.3423   39.4595    4.2506 C.ar    1  UNL1       -0.0073
     23 C           9.3129   40.6621    5.1296 C.3     1  UNL1        0.0324
     24 C           8.2010   39.1754    3.4934 C.ar    1  UNL1       -0.0072
     25 C           8.1853   38.0900    2.6160 C.ar    1  UNL1       -0.0221
     26 C           6.9667   37.7968    1.8179 C.3     1  UNL1        0.0310
     27 C           9.3174   37.2865    2.4815 C.ar    1  UNL1       -0.0030
     28 C          10.4615   37.5633    3.2319 C.ar    1  UNL1        0.0155
     29 C          13.7587   38.2603    6.0337 C.3     1  UNL1        0.0252
     30 C          12.6562   37.8189    5.0882 C.3     1  UNL1        0.1160
@<TRIPOS>BOND
     1    29    30    1
     2    30    20    1
     3    22    24   ar
     4    23    22    1
     5    25    27   ar
     6    26    25    1
     7    28    21   ar
     8     1     5   ar
     9     2     7    1
    10     2     5   ar
    11     6    10    1
    12    11    12   ar
    13    13    16    1
    14    13    14   ar
    15    15    10   ar
    16    20    21    1
    17     3     4   ar
    18     7     6   am
    19    17    20    1
    20    17     1    1
    21    21    22   ar
    22    24    25   ar
    23    27    28   ar
    24     1     3   ar
    25     2     4   ar
    26     6     8    2
    27    10    11   ar
    28    12    13   ar
    29    14    15   ar
    30    17    18    2
    31    17    19    2
    32     7     9    1
@<TRIPOS>MOLECULE
MolPort-007-723-652 CHEMBL1533885 ChemDiv-E157-7157 MCULE-1767363288 PubChem-16017540 ZINC000008588143 ZINC08588143
 30 32 0 0 0
SMALL
GASTEIGER

@<TRIPOS>ATOM
      1 C          11.4832   41.5146    6.6961 C.ar    1  UNL1        0.2593
      2 C          13.5735   40.9265    7.6882 C.ar    1  UNL1        0.1896
      3 N          12.2153   42.5894    7.0613 N.ar    1  UNL1       -0.1187
      4 N          13.3809   42.2624    7.6156 N.ar    1  UNL1       -0.1239
      5 S          12.2730   40.0702    7.0516 S.2     1  UNL1       -0.0102
      6 C          14.7961   39.6165    9.4908 C.2     1  UNL1        0.2509
      7 N          14.7417   40.3090    8.2365 N.am    1  UNL1       -0.2592
      8 O          13.7632   39.5129   10.2074 O.2     1  UNL1       -0.2698
      9 H          15.5729   40.3638    7.7118 H       1  UNL1        0.1571
     10 C          16.0658   39.0229    9.9453 C.ar    1  UNL1        0.0539
     11 C          17.0874   39.8384   10.4538 C.ar    1  UNL1        0.0068
     12 C          18.2924   39.2763   10.8854 C.ar    1  UNL1        0.0298
     13 C          18.4846   37.8941   10.8116 C.ar    1  UNL1        0.1401
     14 C          17.4723   37.0739   10.3065 C.ar    1  UNL1        0.0298
     15 C          16.2673   37.6361    9.8749 C.ar    1  UNL1        0.0068
     16 F          19.6521   37.3495   11.2298 F       1  UNL1       -0.2042
     17 S           9.9148   41.6247    5.9243 S.O2    1  UNL1        0.1010
     18 O          10.0147   41.1381    4.5058 O.2     1  UNL1       -0.1477
     19 O           9.4674   43.0594    5.9106 O.2     1  UNL1       -0.1477
     20 N           8.7668   40.6398    6.7847 N.pl3   1  UNL1       -0.1891
     21 C           9.2271   39.6757    7.7508 C.ar    1  UNL1        0.0649
     22 C           9.6539   40.0592    9.0441 C.ar    1  UNL1       -0.0073
     23 C           9.5932   41.4721    9.5129 C.3     1  UNL1        0.0324
     24 C          10.1049   39.0901    9.9463 C.ar    1  UNL1       -0.0072
     25 C          10.1388   37.7434    9.5809 C.ar    1  UNL1       -0.0221
     26 C          10.6214   36.7229   10.5471 C.3     1  UNL1        0.0310
     27 C           9.7105   37.3550    8.3116 C.ar    1  UNL1       -0.0030
     28 C           9.2575   38.3150    7.4050 C.ar    1  UNL1        0.0155
     29 C           7.1296   42.2911    7.5487 C.3     1  UNL1        0.0252
     30 C           7.3577   41.0174    6.7550 C.3     1  UNL1        0.1160
@<TRIPOS>BOND
     1    29    30    1
     2    30    20    1
     3    22    24   ar
     4    23    22    1
     5    25    27   ar
     6    26    25    1
     7    28    21   ar
     8     1     5   ar
     9     2     7    1
    10     2     5   ar
    11     6    10    1
    12    11    12   ar
    13    13    16    1
    14    13    14   ar
    15    15    10   ar
    16    20    21    1
    17     3     4   ar
    18     7     6   am
    19    17    20    1
    20    17     1    1
    21    21    22   ar
    22    24    25   ar
    23    27    28   ar
    24     1     3   ar
    25     2     4   ar
    26     6     8    2
    27    10    11   ar
    28    12    13   ar
    29    14    15   ar
    30    17    18    2
    31    17    19    2
    32     7     9    1
@<TRIPOS>MOLECULE
MolPort-007-723-652 CHEMBL1533885 ChemDiv-E157-7157 MCULE-1767363288 PubChem-16017540 ZINC000008588143 ZINC08588143
 30 32 0 0 0
SMALL
GASTEIGER

@<TRIPOS>ATOM
      1 C           9.3841   41.0862    6.3315 C.ar    1  UNL1        0.2593
      2 C          11.6425   41.8259    6.1038 C.ar    1  UNL1        0.1896
      3 N           9.9330   40.7490    5.1443 N.ar    1  UNL1       -0.1187
      4 N          11.1923   41.1620    5.0160 N.ar    1  UNL1       -0.1239
      5 S          10.4681   41.9326    7.3036 S.2     1  UNL1       -0.0102
      6 C          13.9301   41.9690    7.2022 C.2     1  UNL1        0.2509
      7 N          12.9590   42.3720    6.2274 N.am    1  UNL1       -0.2592
      8 O          13.6561   41.0669    8.0403 O.2     1  UNL1       -0.2698
      9 H          13.2184   43.0795    5.5939 H       1  UNL1        0.1571
     10 C          15.2554   42.6125    7.2254 C.ar    1  UNL1        0.0539
     11 C          16.2593   42.1369    8.0818 C.ar    1  UNL1        0.0068
     12 C          17.5170   42.7467    8.1046 C.ar    1  UNL1        0.0298
     13 C          17.7801   43.8368    7.2709 C.ar    1  UNL1        0.1401
     14 C          16.7861   44.3173    6.4143 C.ar    1  UNL1        0.0298
     15 C          15.5283   43.7075    6.3916 C.ar    1  UNL1        0.0068
     16 F          18.9988   44.4275    7.2928 F       1  UNL1       -0.2042
     17 S           7.7497   40.6658    6.8001 S.O2    1  UNL1        0.1010
     18 O           7.7329   39.2830    7.3887 O.2     1  UNL1       -0.1477
     19 O           6.8646   40.6827    5.5855 O.2     1  UNL1       -0.1477
     20 N           7.1703   41.7976    7.9883 N.pl3   1  UNL1       -0.1891
     21 C           7.5234   41.6296    9.3745 C.ar    1  UNL1        0.0649
     22 C           6.5433   41.4472   10.3784 C.ar    1  UNL1       -0.0073
     23 C           5.0909   41.3510   10.0607 C.3     1  UNL1        0.0324
     24 C           6.9312   41.3002   11.7142 C.ar    1  UNL1       -0.0072
     25 C           8.2812   41.3330   12.0674 C.ar    1  UNL1       -0.0221
     26 C           8.6814   41.1774   13.4900 C.3     1  UNL1        0.0310
     27 C           9.2549   41.5023   11.0832 C.ar    1  UNL1       -0.0030
     28 C           8.8772   41.6483    9.7473 C.ar    1  UNL1        0.0155
     29 C           7.3496   44.2326    8.1603 C.3     1  UNL1        0.0252
     30 C           6.6085   43.0653    7.5338 C.3     1  UNL1        0.1160
@<TRIPOS>BOND
     1    29    30    1
     2    30    20    1
     3    22    24   ar
     4    23    22    1
     5    25    27   ar
     6    26    25    1
     7    28    21   ar
     8     1     5   ar
     9     2     7    1
    10     2     5   ar
    11     6    10    1
    12    11    12   ar
    13    13    16    1
    14    13    14   ar
    15    15    10   ar
    16    20    21    1
    17     3     4   ar
    18     7     6   am
    19    17    20    1
    20    17     1    1
    21    21    22   ar
    22    24    25   ar
    23    27    28   ar
    24     1     3   ar
    25     2     4   ar
    26     6     8    2
    27    10    11   ar
    28    12    13   ar
    29    14    15   ar
    30    17    18    2
    31    17    19    2
    32     7     9    1
@<TRIPOS>MOLECULE
MolPort-007-723-652 CHEMBL1533885 ChemDiv-E157-7157 MCULE-1767363288 PubChem-16017540 ZINC000008588143 ZINC08588143
 30 32 0 0 0
SMALL
GASTEIGER

@<TRIPOS>ATOM
      1 C           8.7550   40.2075    6.1129 C.ar    1  UNL1        0.2593
      2 C          10.9562   41.0559    5.7463 C.ar    1  UNL1        0.1896
      3 N           8.9899   40.5258    4.8214 N.ar    1  UNL1       -0.1187
      4 N          10.2170   40.9999    4.6161 N.ar    1  UNL1       -0.1239
      5 S          10.0981   40.5055    7.0844 S.2     1  UNL1       -0.0102
      6 C          12.8663   42.2980    6.8727 C.2     1  UNL1        0.2509
      7 N          12.3071   41.5232    5.8037 N.am    1  UNL1       -0.2592
      8 O          12.1575   42.6209    7.8649 O.2     1  UNL1       -0.2698
      9 H          12.8989   41.2949    5.0507 H       1  UNL1        0.1571
     10 C          14.2768   42.7197    6.8116 C.ar    1  UNL1        0.0539
     11 C          14.6980   43.6474    5.8476 C.ar    1  UNL1        0.0068
     12 C          16.0360   44.0482    5.7888 C.ar    1  UNL1        0.0298
     13 C          16.9628   43.5241    6.6939 C.ar    1  UNL1        0.1401
     14 C          16.5521   42.5995    7.6577 C.ar    1  UNL1        0.0298
     15 C          15.2141   42.1986    7.7165 C.ar    1  UNL1        0.0068
     16 F          18.2591   43.9126    6.6370 F       1  UNL1       -0.2042
     17 S           7.2406   39.5428    6.6894 S.O2    1  UNL1        0.1010
     18 O           7.4832   38.1933    7.3050 O.2     1  UNL1       -0.1477
     19 O           6.2963   39.3808    5.5315 O.2     1  UNL1       -0.1477
     20 N           6.5538   40.6006    7.8884 N.pl3   1  UNL1       -0.1891
     21 C           7.3908   41.5526    8.5724 C.ar    1  UNL1        0.0649
     22 C           7.5655   42.8728    8.0946 C.ar    1  UNL1       -0.0073
     23 C           6.8461   43.3834    6.8940 C.3     1  UNL1        0.0324
     24 C           8.3978   43.7604    8.7845 C.ar    1  UNL1       -0.0072
     25 C           9.0608   43.3541    9.9435 C.ar    1  UNL1       -0.0221
     26 C           9.9437   44.3053   10.6672 C.3     1  UNL1        0.0310
     27 C           8.8866   42.0576   10.4275 C.ar    1  UNL1       -0.0030
     28 C           8.0568   41.1652    9.7465 C.ar    1  UNL1        0.0155
     29 C           4.6603   41.0194    9.3818 C.3     1  UNL1        0.0252
     30 C           5.1024   40.7328    7.9582 C.3     1  UNL1        0.1160
@<TRIPOS>BOND
     1    29    30    1
     2    30    20    1
     3    22    24   ar
     4    23    22    1
     5    25    27   ar
     6    26    25    1
     7    28    21   ar
     8     1     5   ar
     9     2     7    1
    10     2     5   ar
    11     6    10    1
    12    11    12   ar
    13    13    16    1
    14    13    14   ar
    15    15    10   ar
    16    20    21    1
    17     3     4   ar
    18     7     6   am
    19    17    20    1
    20    17     1    1
    21    21    22   ar
    22    24    25   ar
    23    27    28   ar
    24     1     3   ar
    25     2     4   ar
    26     6     8    2
    27    10    11   ar
    28    12    13   ar
    29    14    15   ar
    30    17    18    2
    31    17    19    2
    32     7     9    1
@<TRIPOS>MOLECULE
MolPort-007-723-652 CHEMBL1533885 ChemDiv-E157-7157 MCULE-1767363288 PubChem-16017540 ZINC000008588143 ZINC08588143
 30 32 0 0 0
SMALL
GASTEIGER

@<TRIPOS>ATOM
      1 C          11.3930   40.6843   10.0021 C.ar    1  UNL1        0.2593
      2 C           9.1482   40.9792   10.7593 C.ar    1  UNL1        0.1896
      3 N          11.3159   41.0146   11.3096 N.ar    1  UNL1       -0.1187
      4 N          10.0643   41.1802   11.7326 N.ar    1  UNL1       -0.1239
      5 S           9.8690   40.5768    9.2935 S.2     1  UNL1       -0.0102
      6 C           6.8559   41.8858   10.1399 C.2     1  UNL1        0.2509
      7 N           7.7344   41.0908   10.9474 N.am    1  UNL1       -0.2592
      8 O           7.3110   42.5591    9.1752 O.2     1  UNL1       -0.2698
      9 H           7.3335   40.5822   11.6888 H       1  UNL1        0.1571
     10 C           5.4135   41.9167   10.4391 C.ar    1  UNL1        0.0539
     11 C           4.8805   41.0966   11.4444 C.ar    1  UNL1        0.0068
     12 C           3.5121   41.1251   11.7291 C.ar    1  UNL1        0.0298
     13 C           2.6665   41.9743   11.0103 C.ar    1  UNL1        0.1401
     14 C           3.1888   42.7950   10.0071 C.ar    1  UNL1        0.0298
     15 C           4.5572   42.7663    9.7224 C.ar    1  UNL1        0.0068
     16 F           1.3408   42.0021   11.2862 F       1  UNL1       -0.2042
     17 S          12.9011   40.3827    9.1640 S.O2    1  UNL1        0.1010
     18 O          12.8435   39.0418    8.4874 O.2     1  UNL1       -0.1477
     19 O          14.0284   40.3723   10.1578 O.2     1  UNL1       -0.1477
     20 N          13.1623   41.6154    7.9638 N.pl3   1  UNL1       -0.1891
     21 C          14.4807   42.1611    7.7677 C.ar    1  UNL1        0.0649
     22 C          15.6297   41.5607    8.3343 C.ar    1  UNL1       -0.0073
     23 C          15.5596   40.2925    9.1130 C.3     1  UNL1        0.0324
     24 C          16.8897   42.1321    8.1279 C.ar    1  UNL1       -0.0072
     25 C          17.0243   43.2939    7.3661 C.ar    1  UNL1       -0.0221
     26 C          18.3677   43.8929    7.1549 C.3     1  UNL1        0.0310
     27 C          15.8983   43.8870    6.7953 C.ar    1  UNL1       -0.0030
     28 C          14.6370   43.3231    6.9946 C.ar    1  UNL1        0.0155
     29 C          12.0448   40.6853    5.9948 C.3     1  UNL1        0.0252
     30 C          12.1262   41.8510    6.9637 C.3     1  UNL1        0.1160
@<TRIPOS>BOND
     1    29    30    1
     2    30    20    1
     3    22    24   ar
     4    23    22    1
     5    25    27   ar
     6    26    25    1
     7    28    21   ar
     8     1     5   ar
     9     2     7    1
    10     2     5   ar
    11     6    10    1
    12    11    12   ar
    13    13    16    1
    14    13    14   ar
    15    15    10   ar
    16    20    21    1
    17     3     4   ar
    18     7     6   am
    19    17    20    1
    20    17     1    1
    21    21    22   ar
    22    24    25   ar
    23    27    28   ar
    24     1     3   ar
    25     2     4   ar
    26     6     8    2
    27    10    11   ar
    28    12    13   ar
    29    14    15   ar
    30    17    18    2
    31    17    19    2
    32     7     9    1
@<TRIPOS>MOLECULE
MolPort-007-723-652 CHEMBL1533885 ChemDiv-E157-7157 MCULE-1767363288 PubChem-16017540 ZINC000008588143 ZINC08588143
 30 32 0 0 0
SMALL
GASTEIGER

@<TRIPOS>ATOM
      1 C          12.5755   38.8340   10.3966 C.ar    1  UNL1        0.2593
      2 C          10.6459   39.9399    9.5289 C.ar    1  UNL1        0.1896
      3 N          12.0053   38.1710    9.3672 N.ar    1  UNL1       -0.1187
      4 N          10.9284   38.7866    8.8832 N.ar    1  UNL1       -0.1239
      5 S          11.7479   40.2550   10.7603 S.2     1  UNL1       -0.0102
      6 C           9.5138   41.7203    8.1117 C.2     1  UNL1        0.2509
      7 N           9.5455   40.7955    9.2069 N.am    1  UNL1       -0.2592
      8 O          10.5055   41.8289    7.3398 O.2     1  UNL1       -0.2698
      9 H           8.7480   40.7454    9.7820 H       1  UNL1        0.1571
     10 C           8.3162   42.5488    7.8870 C.ar    1  UNL1        0.0539
     11 C           7.6951   42.5703    6.6296 C.ar    1  UNL1        0.0068
     12 C           6.5588   43.3559    6.4153 C.ar    1  UNL1        0.0298
     13 C           6.0351   44.1259    7.4572 C.ar    1  UNL1        0.1401
     14 C           6.6472   44.1105    8.7133 C.ar    1  UNL1        0.0298
     15 C           7.7836   43.3249    8.9276 C.ar    1  UNL1        0.0068
     16 F           4.9341   44.8870    7.2497 F       1  UNL1       -0.2042
     17 S          14.0159   38.2837   11.2273 S.O2    1  UNL1        0.1010
     18 O          13.8701   36.8306   11.5826 O.2     1  UNL1       -0.1477
     19 O          14.1914   39.0735   12.4939 O.2     1  UNL1       -0.1477
     20 N          15.4015   38.4808   10.1930 N.pl3   1  UNL1       -0.1891
     21 C          15.8839   37.3678    9.4164 C.ar    1  UNL1        0.0649
     22 C          17.1625   36.8029    9.6345 C.ar    1  UNL1       -0.0073
     23 C          18.0643   37.2772   10.7215 C.3     1  UNL1        0.0324
     24 C          17.5951   35.7301    8.8480 C.ar    1  UNL1       -0.0072
     25 C          16.7744   35.2105    7.8456 C.ar    1  UNL1       -0.0221
     26 C          17.2452   34.0718    7.0152 C.3     1  UNL1        0.0310
     27 C          15.5083   35.7546    7.6302 C.ar    1  UNL1       -0.0030
     28 C          15.0675   36.8244    8.4112 C.ar    1  UNL1        0.0155
     29 C          14.9571   40.4723    8.8413 C.3     1  UNL1        0.0252
     30 C          15.8577   39.8314    9.8817 C.3     1  UNL1        0.1160
@<TRIPOS>BOND
     1    29    30    1
     2    30    20    1
     3    22    24   ar
     4    23    22    1
     5    25    27   ar
     6    26    25    1
     7    28    21   ar
     8     1     5   ar
     9     2     7    1
    10     2     5   ar
    11     6    10    1
    12    11    12   ar
    13    13    16    1
    14    13    14   ar
    15    15    10   ar
    16    20    21    1
    17     3     4   ar
    18     7     6   am
    19    17    20    1
    20    17     1    1
    21    21    22   ar
    22    24    25   ar
    23    27    28   ar
    24     1     3   ar
    25     2     4   ar
    26     6     8    2
    27    10    11   ar
    28    12    13   ar
    29    14    15   ar
    30    17    18    2
    31    17    19    2
    32     7     9    1
