@<TRIPOS>MOLECULE
MolPort-005-101-321 12471464 CSSS00159780271 PubChem-25306940 ZINC000012471464
 31 34 0 0 0
SMALL
GASTEIGER

@<TRIPOS>ATOM
      1 C          12.4056   38.2672    9.5536 C.3     1  UNL1        0.0744
      2 C          11.0222   38.9415    9.5746 C.3     1  UNL1        0.0418
      3 C          11.0318   40.4082    9.1159 C.3     1  UNL1        0.1093
      4 C          12.2292   41.2138    9.6448 C.3     1  UNL1        0.0418
      5 C          13.4496   40.3443    9.9554 C.3     1  UNL1        0.0744
      6 N          13.4618   39.1674    9.0942 N.3     1  UNL1       -0.2688
      7 C          10.1563   40.4155    5.6484 C.ar    1  UNL1        0.1230
      8 C          11.4633   40.8744    5.5281 C.ar    1  UNL1        0.0565
      9 C          11.9107   40.9121    6.8356 C.ar    1  UNL1        0.1328
     10 N          10.9370   40.5058    7.6615 N.ar    1  UNL1       -0.2394
     11 N           9.8667   40.2016    6.9494 N.ar    1  UNL1       -0.1666
     12 C          13.9777   42.4049    6.7482 C.2     1  UNL1        0.2521
     13 N          13.2113   41.3166    7.2825 N.am    1  UNL1       -0.2660
     14 O          13.5219   43.1042    5.8026 O.2     1  UNL1       -0.2697
     15 H          13.6133   40.8030    8.0199 H       1  UNL1        0.1566
     16 C          15.3059   42.7080    7.3083 C.ar    1  UNL1        0.0728
     17 C          15.8983   41.8511    8.2450 C.ar    1  UNL1        0.1034
     18 C          17.8101   43.2512    8.3876 C.ar    1  UNL1        0.0989
     19 C          17.2594   44.1341    7.4569 C.ar    1  UNL1        0.0208
     20 C          16.0025   43.8580    6.9170 C.ar    1  UNL1        0.0077
     21 N          17.1244   42.1375    8.7595 N.ar    1  UNL1       -0.2422
     22 C          14.7257   38.4821    9.3097 C.3     1  UNL1        0.0989
     23 C          15.7155   36.4086    8.4519 C.2     1  UNL1       -0.0032
     24 C          14.6298   37.0679    8.8451 C.2     1  UNL1       -0.0088
     25 F          15.6173   31.1012    6.5870 F       1  UNL1       -0.2042
     26 C          15.6354   32.3758    7.0443 C.ar    1  UNL1        0.1401
     27 C          16.3368   33.3601    6.3424 C.ar    1  UNL1        0.0296
     28 C          16.3559   34.6764    6.8139 C.ar    1  UNL1        0.0023
     29 C          15.6750   35.0155    7.9881 C.ar    1  UNL1       -0.0001
     30 C          14.9727   34.0224    8.6903 C.ar    1  UNL1        0.0023
     31 C          14.9533   32.7066    8.2185 C.ar    1  UNL1        0.0296
@<TRIPOS>BOND
     1    26    25    1
     2    27    28   ar
     3    29    23    1
     4    29    30   ar
     5    22    24    1
     6    22     6    1
     7     1     6    1
     8     1     2    1
     9     2     3    1
    10     3     4    1
    11     3    10    1
    12     4     5    1
    13     5     6    1
    14     7     8   ar
    15     9    13    1
    16     9    10   ar
    17    12    16    1
    18    17    21   ar
    19    18    19   ar
    20    20    16   ar
    21    31    26   ar
    22    10    11   ar
    23    13    12   am
    24    26    27   ar
    25    28    29   ar
    26    23    24    2
    27     7    11   ar
    28     8     9   ar
    29    12    14    2
    30    16    17   ar
    31    18    21   ar
    32    19    20   ar
    33    30    31   ar
    34    13    15    1
@<TRIPOS>MOLECULE
MolPort-005-101-321 12471464 CSSS00159780271 PubChem-25306940 ZINC000012471464
 31 34 0 0 0
SMALL
GASTEIGER

@<TRIPOS>ATOM
      1 C          10.1955   39.9416    9.9957 C.3     1  UNL1        0.0744
      2 C           9.9152   41.3908    9.5596 C.3     1  UNL1        0.0418
      3 C          11.0429   42.0261    8.7310 C.3     1  UNL1        0.1093
      4 C          12.4521   41.6933    9.2467 C.3     1  UNL1        0.0418
      5 C          12.5150   40.3720   10.0160 C.3     1  UNL1        0.0744
      6 N          11.4918   39.4551    9.5269 N.3     1  UNL1       -0.2688
      7 C          10.0474   41.1396    5.4124 C.ar    1  UNL1        0.1230
      8 C          11.4123   41.2761    5.1846 C.ar    1  UNL1        0.0565
      9 C          11.9103   41.6253    6.4260 C.ar    1  UNL1        0.1328
     10 N          10.9106   41.6894    7.3158 N.ar    1  UNL1       -0.2394
     11 N           9.7744   41.3956    6.7094 N.ar    1  UNL1       -0.1666
     12 C          13.9894   43.1030    6.4791 C.2     1  UNL1        0.2521
     13 N          13.2811   41.8865    6.7542 N.am    1  UNL1       -0.2660
     14 O          13.4106   44.0629    5.9008 O.2     1  UNL1       -0.2697
     15 H          13.7795   41.1688    7.2077 H       1  UNL1        0.1566
     16 C          15.4022   43.2319    6.8754 C.ar    1  UNL1        0.0728
     17 C          16.1974   44.2630    6.3586 C.ar    1  UNL1        0.1034
     18 C          18.0728   43.5031    7.6000 C.ar    1  UNL1        0.0989
     19 C          17.3191   42.4599    8.1409 C.ar    1  UNL1        0.0208
     20 C          15.9789   42.3272    7.7752 C.ar    1  UNL1        0.0077
     21 N          17.5018   44.3757    6.7274 N.ar    1  UNL1       -0.2422
     22 C          11.7174   38.1686   10.1653 C.3     1  UNL1        0.0989
     23 C          13.2569   36.3656    9.5376 C.2     1  UNL1       -0.0032
     24 C          13.0730   37.6524    9.8173 C.2     1  UNL1       -0.0088
     25 F          18.2406   34.1323    8.1841 F       1  UNL1       -0.2042
     26 C          17.0456   34.6793    8.5111 C.ar    1  UNL1        0.1401
     27 C          15.8887   33.8952    8.4887 C.ar    1  UNL1        0.0296
     28 C          14.6545   34.4592    8.8262 C.ar    1  UNL1        0.0023
     29 C          14.5700   35.8082    9.1873 C.ar    1  UNL1       -0.0001
     30 C          15.7352   36.5920    9.2069 C.ar    1  UNL1        0.0023
     31 C          16.9692   36.0278    8.8700 C.ar    1  UNL1        0.0296
@<TRIPOS>BOND
     1    26    25    1
     2    27    28   ar
     3    29    23    1
     4    29    30   ar
     5    22    24    1
     6    22     6    1
     7     1     6    1
     8     1     2    1
     9     2     3    1
    10     3     4    1
    11     3    10    1
    12     4     5    1
    13     5     6    1
    14     7     8   ar
    15     9    13    1
    16     9    10   ar
    17    12    16    1
    18    17    21   ar
    19    18    19   ar
    20    20    16   ar
    21    31    26   ar
    22    10    11   ar
    23    13    12   am
    24    26    27   ar
    25    28    29   ar
    26    23    24    2
    27     7    11   ar
    28     8     9   ar
    29    12    14    2
    30    16    17   ar
    31    18    21   ar
    32    19    20   ar
    33    30    31   ar
    34    13    15    1
@<TRIPOS>MOLECULE
MolPort-005-101-321 12471464 CSSS00159780271 PubChem-25306940 ZINC000012471464
 31 34 0 0 0
SMALL
GASTEIGER

@<TRIPOS>ATOM
      1 C           8.8184   41.0399    9.7651 C.3     1  UNL1        0.0744
      2 C           8.2380   41.8191    8.5714 C.3     1  UNL1        0.0418
      3 C           9.2840   42.2357    7.5254 C.3     1  UNL1        0.1093
      4 C          10.6026   42.7377    8.1352 C.3     1  UNL1        0.0418
      5 C          10.8784   42.1649    9.5272 C.3     1  UNL1        0.0744
      6 N          10.2640   40.8491    9.6613 N.3     1  UNL1       -0.2688
      7 C           9.2658   39.3677    5.3889 C.ar    1  UNL1        0.1230
      8 C          10.4960   39.8941    5.0106 C.ar    1  UNL1        0.0565
      9 C          10.6106   41.0305    5.7893 C.ar    1  UNL1        0.1328
     10 N           9.5269   41.1609    6.5664 N.ar    1  UNL1       -0.2394
     11 N           8.7038   40.1550    6.3305 N.ar    1  UNL1       -0.1666
     12 C          12.9471   41.7757    6.4924 C.2     1  UNL1        0.2521
     13 N          11.7063   41.9550    5.7959 N.am    1  UNL1       -0.2660
     14 O          13.1524   40.7353    7.1753 O.2     1  UNL1       -0.2697
     15 H          11.5975   42.7848    5.2774 H       1  UNL1        0.1566
     16 C          13.9890   42.8136    6.4089 C.ar    1  UNL1        0.0728
     17 C          13.8428   43.9038    5.5413 C.ar    1  UNL1        0.1034
     18 C          15.9369   44.7890    6.2244 C.ar    1  UNL1        0.0989
     19 C          16.1259   43.7210    7.1034 C.ar    1  UNL1        0.0208
     20 C          15.1458   42.7316    7.1936 C.ar    1  UNL1        0.0077
     21 N          14.8092   44.8581    5.4679 N.ar    1  UNL1       -0.2422
     22 C          10.7088   40.2866   10.9259 C.3     1  UNL1        0.0989
     23 C          12.9317   39.2832   10.6678 C.2     1  UNL1       -0.0032
     24 C          12.1970   40.3354   11.0156 C.2     1  UNL1       -0.0088
     25 F          18.5553   39.3393   10.8389 F       1  UNL1       -0.2042
     26 C          17.2015   39.3195   10.8062 C.ar    1  UNL1        0.1401
     27 C          16.5146   40.0728    9.8500 C.ar    1  UNL1        0.0296
     28 C          15.1169   40.0529    9.8155 C.ar    1  UNL1        0.0023
     29 C          14.3991   39.2812   10.7356 C.ar    1  UNL1       -0.0001
     30 C          15.0940   38.5271   11.6952 C.ar    1  UNL1        0.0023
     31 C          16.4915   38.5466   11.7291 C.ar    1  UNL1        0.0296
@<TRIPOS>BOND
     1    26    25    1
     2    27    28   ar
     3    29    23    1
     4    29    30   ar
     5    22    24    1
     6    22     6    1
     7     1     6    1
     8     1     2    1
     9     2     3    1
    10     3     4    1
    11     3    10    1
    12     4     5    1
    13     5     6    1
    14     7     8   ar
    15     9    13    1
    16     9    10   ar
    17    12    16    1
    18    17    21   ar
    19    18    19   ar
    20    20    16   ar
    21    31    26   ar
    22    10    11   ar
    23    13    12   am
    24    26    27   ar
    25    28    29   ar
    26    23    24    2
    27     7    11   ar
    28     8     9   ar
    29    12    14    2
    30    16    17   ar
    31    18    21   ar
    32    19    20   ar
    33    30    31   ar
    34    13    15    1
@<TRIPOS>MOLECULE
MolPort-005-101-321 12471464 CSSS00159780271 PubChem-25306940 ZINC000012471464
 31 34 0 0 0
SMALL
GASTEIGER

@<TRIPOS>ATOM
      1 C          12.1639   41.0150   10.0534 C.3     1  UNL1        0.0744
      2 C          12.9741   40.4718    8.8628 C.3     1  UNL1        0.0418
      3 C          12.2086   39.4647    7.9900 C.3     1  UNL1        0.1093
      4 C          11.3623   38.4660    8.7956 C.3     1  UNL1        0.0418
      5 C          10.9317   39.0061   10.1611 C.3     1  UNL1        0.0744
      6 N          10.8134   40.4589   10.1137 N.3     1  UNL1       -0.2688
      7 C           9.7178   40.7193    5.7513 C.ar    1  UNL1        0.1230
      8 C          10.7752   41.5293    5.3521 C.ar    1  UNL1        0.0565
      9 C          11.8146   41.1236    6.1683 C.ar    1  UNL1        0.1328
     10 N          11.3968   40.1480    6.9861 N.ar    1  UNL1       -0.2394
     11 N          10.1238   39.8951    6.7402 N.ar    1  UNL1       -0.1666
     12 C          13.5758   42.8579    6.8001 C.2     1  UNL1        0.2521
     13 N          13.1515   41.6412    6.1704 N.am    1  UNL1       -0.2660
     14 O          12.7480   43.5786    7.4215 O.2     1  UNL1       -0.2697
     15 H          13.8377   41.1159    5.6988 H       1  UNL1        0.1566
     16 C          14.9884   43.2679    6.7210 C.ar    1  UNL1        0.0728
     17 C          15.3905   44.2770    5.8364 C.ar    1  UNL1        0.1034
     18 C          17.6464   44.0644    6.5443 C.ar    1  UNL1        0.0989
     19 C          17.2924   43.0545    7.4408 C.ar    1  UNL1        0.0208
     20 C          15.9573   42.6576    7.5270 C.ar    1  UNL1        0.0077
     21 N          16.6967   44.6500    5.7672 N.ar    1  UNL1       -0.2422
     22 C          10.2335   40.8909   11.3749 C.3     1  UNL1        0.0989
     23 C           8.4490   41.7159    9.9087 C.2     1  UNL1       -0.0032
     24 C           8.8871   41.4901   11.1436 C.2     1  UNL1       -0.0088
     25 F           3.4509   44.0365    8.7728 F       1  UNL1       -0.2042
     26 C           4.6492   43.4705    9.0520 C.ar    1  UNL1        0.1401
     27 C           5.8175   43.9964    8.4933 C.ar    1  UNL1        0.0296
     28 C           7.0551   43.4126    8.7810 C.ar    1  UNL1        0.0023
     29 C           7.1315   42.3013    9.6275 C.ar    1  UNL1       -0.0001
     30 C           5.9545   41.7760   10.1852 C.ar    1  UNL1        0.0023
     31 C           4.7173   42.3601    9.8979 C.ar    1  UNL1        0.0296
@<TRIPOS>BOND
     1    26    25    1
     2    27    28   ar
     3    29    23    1
     4    29    30   ar
     5    22    24    1
     6    22     6    1
     7     1     6    1
     8     1     2    1
     9     2     3    1
    10     3     4    1
    11     3    10    1
    12     4     5    1
    13     5     6    1
    14     7     8   ar
    15     9    13    1
    16     9    10   ar
    17    12    16    1
    18    17    21   ar
    19    18    19   ar
    20    20    16   ar
    21    31    26   ar
    22    10    11   ar
    23    13    12   am
    24    26    27   ar
    25    28    29   ar
    26    23    24    2
    27     7    11   ar
    28     8     9   ar
    29    12    14    2
    30    16    17   ar
    31    18    21   ar
    32    19    20   ar
    33    30    31   ar
    34    13    15    1
@<TRIPOS>MOLECULE
MolPort-005-101-321 12471464 CSSS00159780271 PubChem-25306940 ZINC000012471464
 31 34 0 0 0
SMALL
GASTEIGER

@<TRIPOS>ATOM
      1 C          11.2848   40.8988    9.1378 C.3     1  UNL1        0.0744
      2 C          11.9552   40.1934    7.9453 C.3     1  UNL1        0.0418
      3 C          11.9256   41.0032    6.6395 C.3     1  UNL1        0.1093
      4 C          10.5907   41.7224    6.3879 C.3     1  UNL1        0.0418
      5 C           9.8224   42.0326    7.6744 C.3     1  UNL1        0.0744
      6 N          10.7507   42.2129    8.7846 N.3     1  UNL1       -0.2688
      7 C          14.2995   43.5951    5.9789 C.ar    1  UNL1        0.1230
      8 C          14.9892   42.9433    6.9952 C.ar    1  UNL1        0.0565
      9 C          14.1471   41.9011    7.3356 C.ar    1  UNL1        0.1328
     10 N          13.0448   41.9398    6.5751 N.ar    1  UNL1       -0.2394
     11 N          13.1281   42.9657    5.7472 N.ar    1  UNL1       -0.1666
     12 C          15.6251   40.6788    9.0180 C.2     1  UNL1        0.2521
     13 N          14.3809   40.9075    8.3423 N.am    1  UNL1       -0.2660
     14 O          16.6380   41.3800    8.7472 O.2     1  UNL1       -0.2697
     15 H          13.6216   40.3325    8.5913 H       1  UNL1        0.1566
     16 C          15.7202   39.6180   10.0356 C.ar    1  UNL1        0.0728
     17 C          14.6395   39.3433   10.8836 C.ar    1  UNL1        0.1034
     18 C          15.8664   37.6249   11.9687 C.ar    1  UNL1        0.0989
     19 C          16.9688   37.8630   11.1459 C.ar    1  UNL1        0.0208
     20 C          16.8915   38.8639   10.1764 C.ar    1  UNL1        0.0077
     21 N          14.7341   38.3634   11.8222 N.ar    1  UNL1       -0.2422
     22 C           9.9804   42.6778    9.9265 C.3     1  UNL1        0.0989
     23 C           7.7515   41.8446   10.5202 C.2     1  UNL1       -0.0032
     24 C           8.5213   42.5111    9.6651 C.2     1  UNL1       -0.0088
     25 F           2.2233   41.0713    9.8149 F       1  UNL1       -0.2042
     26 C           3.5545   41.2616    9.9750 C.ar    1  UNL1        0.1401
     27 C           4.1675   40.9278   11.1860 C.ar    1  UNL1        0.0296
     28 C           5.5419   41.1240   11.3522 C.ar    1  UNL1        0.0023
     29 C           6.3102   41.6544   10.3101 C.ar    1  UNL1       -0.0001
     30 C           5.6893   41.9894    9.0958 C.ar    1  UNL1        0.0023
     31 C           4.3151   41.7926    8.9297 C.ar    1  UNL1        0.0296
@<TRIPOS>BOND
     1    26    25    1
     2    27    28   ar
     3    29    23    1
     4    29    30   ar
     5    22    24    1
     6    22     6    1
     7     1     6    1
     8     1     2    1
     9     2     3    1
    10     3     4    1
    11     3    10    1
    12     4     5    1
    13     5     6    1
    14     7     8   ar
    15     9    13    1
    16     9    10   ar
    17    12    16    1
    18    17    21   ar
    19    18    19   ar
    20    20    16   ar
    21    31    26   ar
    22    10    11   ar
    23    13    12   am
    24    26    27   ar
    25    28    29   ar
    26    23    24    2
    27     7    11   ar
    28     8     9   ar
    29    12    14    2
    30    16    17   ar
    31    18    21   ar
    32    19    20   ar
    33    30    31   ar
    34    13    15    1
@<TRIPOS>MOLECULE
MolPort-005-101-321 12471464 CSSS00159780271 PubChem-25306940 ZINC000012471464
 31 34 0 0 0
SMALL
GASTEIGER

@<TRIPOS>ATOM
      1 C          11.3185   40.6369    8.7862 C.3     1  UNL1        0.0744
      2 C          12.0918   40.1002    7.5685 C.3     1  UNL1        0.0418
      3 C          12.0553   41.0273    6.3433 C.3     1  UNL1        0.1093
      4 C          10.6806   41.6678    6.0931 C.3     1  UNL1        0.0418
      5 C           9.8364   41.7959    7.3629 C.3     1  UNL1        0.0744
      6 N          10.6997   41.9363    8.5298 N.3     1  UNL1       -0.2688
      7 C          14.2880   43.7992    5.9949 C.ar    1  UNL1        0.1230
      8 C          14.8999   43.1817    7.0801 C.ar    1  UNL1        0.0565
      9 C          14.1047   42.0740    7.3078 C.ar    1  UNL1        0.1328
     10 N          13.1002   42.0450    6.4216 N.ar    1  UNL1       -0.2394
     11 N          13.2031   43.0893    5.6192 N.ar    1  UNL1       -0.1666
     12 C          15.5373   40.7621    8.9618 C.2     1  UNL1        0.2521
     13 N          14.2923   41.0822    8.3258 N.am    1  UNL1       -0.2660
     14 O          16.5941   41.3714    8.6412 O.2     1  UNL1       -0.2697
     15 H          13.4976   40.5770    8.6131 H       1  UNL1        0.1566
     16 C          15.5815   39.7151    9.9970 C.ar    1  UNL1        0.0728
     17 C          16.7378   38.9475   10.1872 C.ar    1  UNL1        0.1034
     18 C          15.6982   37.7294   11.9396 C.ar    1  UNL1        0.0989
     19 C          14.5244   38.4693   11.7865 C.ar    1  UNL1        0.0208
     20 C          14.4696   39.4655   10.8107 C.ar    1  UNL1        0.0077
     21 N          16.7717   37.9812   11.1439 N.ar    1  UNL1       -0.2422
     22 C           9.8476   42.2319    9.6701 C.3     1  UNL1        0.0989
     23 C           7.4240   42.4428    9.3595 C.2     1  UNL1       -0.0032
     24 C           8.6342   42.9772    9.2260 C.2     1  UNL1       -0.0088
     25 F           2.7906   45.1659    7.6944 F       1  UNL1       -0.2042
     26 C           3.8999   44.5039    8.1010 C.ar    1  UNL1        0.1401
     27 C           5.1535   44.8682    7.6014 C.ar    1  UNL1        0.0296
     28 C           6.2993   44.1853    8.0207 C.ar    1  UNL1        0.0023
     29 C           6.1986   43.1358    8.9404 C.ar    1  UNL1       -0.0001
     30 C           4.9366   42.7729    9.4383 C.ar    1  UNL1        0.0023
     31 C           3.7911   43.4561    9.0194 C.ar    1  UNL1        0.0296
@<TRIPOS>BOND
     1    26    25    1
     2    27    28   ar
     3    29    23    1
     4    29    30   ar
     5    22    24    1
     6    22     6    1
     7     1     6    1
     8     1     2    1
     9     2     3    1
    10     3     4    1
    11     3    10    1
    12     4     5    1
    13     5     6    1
    14     7     8   ar
    15     9    13    1
    16     9    10   ar
    17    12    16    1
    18    17    21   ar
    19    18    19   ar
    20    20    16   ar
    21    31    26   ar
    22    10    11   ar
    23    13    12   am
    24    26    27   ar
    25    28    29   ar
    26    23    24    2
    27     7    11   ar
    28     8     9   ar
    29    12    14    2
    30    16    17   ar
    31    18    21   ar
    32    19    20   ar
    33    30    31   ar
    34    13    15    1
@<TRIPOS>MOLECULE
MolPort-005-101-321 12471464 CSSS00159780271 PubChem-25306940 ZINC000012471464
 31 34 0 0 0
SMALL
GASTEIGER

@<TRIPOS>ATOM
      1 C          10.6816   41.9909    8.3932 C.3     1  UNL1        0.0744
      2 C          11.9095   41.9159    9.3182 C.3     1  UNL1        0.0418
      3 C          11.8320   40.8029   10.3752 C.3     1  UNL1        0.1093
      4 C          10.4427   40.6539   11.0157 C.3     1  UNL1        0.0418
      5 C           9.3076   41.1360   10.1099 C.3     1  UNL1        0.0744
      6 N           9.6785   40.9754    8.7086 N.3     1  UNL1       -0.2688
      7 C          12.4776   37.4105    9.4454 C.ar    1  UNL1        0.1230
      8 C          13.4593   38.0221    8.6737 C.ar    1  UNL1        0.0565
      9 C          13.2999   39.3653    8.9593 C.ar    1  UNL1        0.1328
     10 N          12.2978   39.5288    9.8336 N.ar    1  UNL1       -0.2394
     11 N          11.7918   38.3464   10.1352 N.ar    1  UNL1       -0.1666
     12 C          15.3626   40.8648    8.8849 C.2     1  UNL1        0.2521
     13 N          14.0693   40.4500    8.4241 N.am    1  UNL1       -0.2660
     14 O          15.9242   40.2626    9.8404 O.2     1  UNL1       -0.2697
     15 H          13.6759   40.9538    7.6753 H       1  UNL1        0.1566
     16 C          16.0396   42.0015    8.2373 C.ar    1  UNL1        0.0728
     17 C          15.3844   42.7586    7.2575 C.ar    1  UNL1        0.1034
     18 C          17.2886   44.1514    6.9929 C.ar    1  UNL1        0.0989
     19 C          17.9809   43.4258    7.9641 C.ar    1  UNL1        0.0208
     20 C          17.3506   42.3476    8.5868 C.ar    1  UNL1        0.0077
     21 N          16.0157   43.8061    6.6622 N.ar    1  UNL1       -0.2422
     22 C           8.5031   41.2785    7.9085 C.3     1  UNL1        0.0989
     23 C           6.2082   41.0182    8.7335 C.2     1  UNL1       -0.0032
     24 C           7.3662   41.6690    8.7918 C.2     1  UNL1       -0.0088
     25 F           1.7478   42.3451   11.8959 F       1  UNL1       -0.2042
     26 C           2.8273   42.0248   11.1434 C.ar    1  UNL1        0.1401
     27 C           2.7015   41.9046    9.7565 C.ar    1  UNL1        0.0296
     28 C           3.8156   41.5740    8.9789 C.ar    1  UNL1        0.0023
     29 C           5.0598   41.3619    9.5824 C.ar    1  UNL1       -0.0001
     30 C           5.1805   41.4827   10.9764 C.ar    1  UNL1        0.0023
     31 C           4.0667   41.8138   11.7537 C.ar    1  UNL1        0.0296
@<TRIPOS>BOND
     1    26    25    1
     2    27    28   ar
     3    29    23    1
     4    29    30   ar
     5    22    24    1
     6    22     6    1
     7     1     6    1
     8     1     2    1
     9     2     3    1
    10     3     4    1
    11     3    10    1
    12     4     5    1
    13     5     6    1
    14     7     8   ar
    15     9    13    1
    16     9    10   ar
    17    12    16    1
    18    17    21   ar
    19    18    19   ar
    20    20    16   ar
    21    31    26   ar
    22    10    11   ar
    23    13    12   am
    24    26    27   ar
    25    28    29   ar
    26    23    24    2
    27     7    11   ar
    28     8     9   ar
    29    12    14    2
    30    16    17   ar
    31    18    21   ar
    32    19    20   ar
    33    30    31   ar
    34    13    15    1
@<TRIPOS>MOLECULE
MolPort-005-101-321 12471464 CSSS00159780271 PubChem-25306940 ZINC000012471464
 31 34 0 0 0
SMALL
GASTEIGER

@<TRIPOS>ATOM
      1 C          10.9898   39.7483   10.2883 C.3     1  UNL1        0.0744
      2 C          11.6260   38.5059    9.6399 C.3     1  UNL1        0.0418
      3 C          12.8451   38.8138    8.7561 C.3     1  UNL1        0.1093
      4 C          12.6762   40.0689    7.8851 C.3     1  UNL1        0.0418
      5 C          11.6944   41.0835    8.4755 C.3     1  UNL1        0.0744
      6 N          11.6823   40.9849    9.9304 N.3     1  UNL1       -0.2688
      7 C          15.6208   38.4025   10.9734 C.ar    1  UNL1        0.1230
      8 C          15.9981   39.6112   10.3988 C.ar    1  UNL1        0.0565
      9 C          14.9762   39.8734    9.5054 C.ar    1  UNL1        0.1328
     10 N          14.0672   38.8901    9.5525 N.ar    1  UNL1       -0.2394
     11 N          14.4499   37.9915   10.4419 N.ar    1  UNL1       -0.1666
     12 C          15.9612   41.8077    8.1648 C.2     1  UNL1        0.2521
     13 N          14.8670   41.0128    8.6424 N.am    1  UNL1       -0.2660
     14 O          17.1458   41.5304    8.4976 O.2     1  UNL1       -0.2697
     15 H          13.9626   41.2722    8.3525 H       1  UNL1        0.1566
     16 C          15.6993   42.9551    7.2791 C.ar    1  UNL1        0.0728
     17 C          16.6874   43.9219    7.0522 C.ar    1  UNL1        0.1034
     18 C          15.2378   45.1347    5.6156 C.ar    1  UNL1        0.0989
     19 C          14.2231   44.1961    5.8119 C.ar    1  UNL1        0.0208
     20 C          14.4585   43.1033    6.6472 C.ar    1  UNL1        0.0077
     21 N          16.4387   44.9800    6.2343 N.ar    1  UNL1       -0.2422
     22 C          10.8752   42.0836   10.4356 C.3     1  UNL1        0.0989
     23 C           8.5047   42.0722    9.8067 C.2     1  UNL1       -0.0032
     24 C           9.4629   41.6413   10.6217 C.2     1  UNL1       -0.0088
     25 F           3.1117   40.5261   10.2324 F       1  UNL1       -0.2042
     26 C           4.4110   40.8971   10.1403 C.ar    1  UNL1        0.1401
     27 C           4.9713   41.1752    8.8904 C.ar    1  UNL1        0.0296
     28 C           6.3127   41.5583    8.7945 C.ar    1  UNL1        0.0023
     29 C           7.1003   41.6651    9.9459 C.ar    1  UNL1       -0.0001
     30 C           6.5327   41.3833   11.1992 C.ar    1  UNL1        0.0023
     31 C           5.1915   41.0008   11.2950 C.ar    1  UNL1        0.0296
@<TRIPOS>BOND
     1    26    25    1
     2    27    28   ar
     3    29    23    1
     4    29    30   ar
     5    22    24    1
     6    22     6    1
     7     1     6    1
     8     1     2    1
     9     2     3    1
    10     3     4    1
    11     3    10    1
    12     4     5    1
    13     5     6    1
    14     7     8   ar
    15     9    13    1
    16     9    10   ar
    17    12    16    1
    18    17    21   ar
    19    18    19   ar
    20    20    16   ar
    21    31    26   ar
    22    10    11   ar
    23    13    12   am
    24    26    27   ar
    25    28    29   ar
    26    23    24    2
    27     7    11   ar
    28     8     9   ar
    29    12    14    2
    30    16    17   ar
    31    18    21   ar
    32    19    20   ar
    33    30    31   ar
    34    13    15    1
@<TRIPOS>MOLECULE
MolPort-005-101-321 12471464 CSSS00159780271 PubChem-25306940 ZINC000012471464
 31 34 0 0 0
SMALL
GASTEIGER

@<TRIPOS>ATOM
      1 C          12.3613   41.5843    9.2251 C.3     1  UNL1        0.0744
      2 C          11.1735   42.5627    9.1943 C.3     1  UNL1        0.0418
      3 C           9.7971   41.8804    9.2368 C.3     1  UNL1        0.1093
      4 C           9.7063   40.6163    8.3671 C.3     1  UNL1        0.0418
      5 C          11.0594   39.9342    8.1537 C.3     1  UNL1        0.0744
      6 N          11.9361   40.1873    9.2913 N.3     1  UNL1       -0.2688
      7 C           9.4022   40.8563   12.6405 C.ar    1  UNL1        0.1230
      8 C           8.2043   41.5475   12.4969 C.ar    1  UNL1        0.0565
      9 C           8.2495   41.9976   11.1905 C.ar    1  UNL1        0.1328
     10 N           9.3904   41.6000   10.6115 N.ar    1  UNL1       -0.2394
     11 N          10.0977   40.9054   11.4846 N.ar    1  UNL1       -0.1666
     12 C           6.3512   42.2876    9.5108 C.2     1  UNL1        0.2521
     13 N           7.2484   42.7734   10.5189 N.am    1  UNL1       -0.2660
     14 O           6.3977   41.0828    9.1405 O.2     1  UNL1       -0.2697
     15 H           7.1700   43.7217   10.7715 H       1  UNL1        0.1566
     16 C           5.3685   43.2022    8.9046 C.ar    1  UNL1        0.0728
     17 C           4.0061   43.0916    9.2115 C.ar    1  UNL1        0.1034
     18 C           3.4866   44.9100    7.7766 C.ar    1  UNL1        0.0989
     19 C           4.8336   45.0581    7.4412 C.ar    1  UNL1        0.0208
     20 C           5.7754   44.1993    8.0097 C.ar    1  UNL1        0.0077
     21 N           3.1035   43.9383    8.6472 N.ar    1  UNL1       -0.2422
     22 C          13.1275   39.3732    9.1138 C.3     1  UNL1        0.0989
     23 C          14.4053   41.1899    8.0739 C.2     1  UNL1       -0.0032
     24 C          14.3339   40.2437    9.0053 C.2     1  UNL1       -0.0088
     25 F          18.8121   44.6279    7.4283 F       1  UNL1       -0.2042
     26 C          17.7564   43.7954    7.5915 C.ar    1  UNL1        0.1401
     27 C          16.6063   43.9650    6.8156 C.ar    1  UNL1        0.0296
     28 C          15.5159   43.1059    6.9835 C.ar    1  UNL1        0.0023
     29 C          15.5690   42.0741    7.9267 C.ar    1  UNL1       -0.0001
     30 C          16.7265   41.9087    8.7047 C.ar    1  UNL1        0.0023
     31 C          17.8168   42.7674    8.5364 C.ar    1  UNL1        0.0296
@<TRIPOS>BOND
     1    26    25    1
     2    27    28   ar
     3    29    23    1
     4    29    30   ar
     5    22    24    1
     6    22     6    1
     7     1     6    1
     8     1     2    1
     9     2     3    1
    10     3     4    1
    11     3    10    1
    12     4     5    1
    13     5     6    1
    14     7     8   ar
    15     9    13    1
    16     9    10   ar
    17    12    16    1
    18    17    21   ar
    19    18    19   ar
    20    20    16   ar
    21    31    26   ar
    22    10    11   ar
    23    13    12   am
    24    26    27   ar
    25    28    29   ar
    26    23    24    2
    27     7    11   ar
    28     8     9   ar
    29    12    14    2
    30    16    17   ar
    31    18    21   ar
    32    19    20   ar
    33    30    31   ar
    34    13    15    1
@<TRIPOS>MOLECULE
MolPort-005-101-321 12471464 CSSS00159780271 PubChem-25306940 ZINC000012471464
 31 34 0 0 0
SMALL
GASTEIGER

@<TRIPOS>ATOM
      1 C           9.6965   42.6474   10.5742 C.3     1  UNL1        0.0744
      2 C          11.0540   42.6791    9.8495 C.3     1  UNL1        0.0418
      3 C          11.7640   41.3176    9.7867 C.3     1  UNL1        0.1093
      4 C          11.6668   40.5087   11.0901 C.3     1  UNL1        0.0418
      5 C          10.4341   40.8600   11.9259 C.3     1  UNL1        0.0744
      6 N           9.3511   41.3128   11.0605 N.3     1  UNL1       -0.2688
      7 C          10.2697   39.0368    7.4726 C.ar    1  UNL1        0.1230
      8 C          11.0041   39.7930    6.5658 C.ar    1  UNL1        0.0565
      9 C          11.6363   40.7264    7.3659 C.ar    1  UNL1        0.1328
     10 N          11.2967   40.5319    8.6473 N.ar    1  UNL1       -0.2394
     11 N          10.4666   39.5071    8.7225 N.ar    1  UNL1       -0.1666
     12 C          13.9199   41.8594    7.2632 C.2     1  UNL1        0.2521
     13 N          12.5282   41.7610    6.9308 N.am    1  UNL1       -0.2660
     14 O          14.4646   40.9909    7.9981 O.2     1  UNL1       -0.2697
     15 H          12.1529   42.4649    6.3538 H       1  UNL1        0.1566
     16 C          14.7184   42.9821    6.7420 C.ar    1  UNL1        0.0728
     17 C          14.1739   43.8721    5.8072 C.ar    1  UNL1        0.1034
     18 C          16.1983   45.1101    5.7358 C.ar    1  UNL1        0.0989
     19 C          16.7828   44.2488    6.6661 C.ar    1  UNL1        0.0208
     20 C          16.0368   43.1821    7.1693 C.ar    1  UNL1        0.0077
     21 N          14.9170   44.9060    5.3288 N.ar    1  UNL1       -0.2422
     22 C           8.1636   41.4574   11.8868 C.3     1  UNL1        0.0989
     23 C           6.8616   42.1626    9.9317 C.2     1  UNL1       -0.0032
     24 C           7.1721   42.3442   11.2117 C.2     1  UNL1       -0.0088
     25 F           3.0625   45.3436    7.2662 F       1  UNL1       -0.2042
     26 C           3.9847   44.5828    7.9025 C.ar    1  UNL1        0.1401
     27 C           3.5820   43.6680    8.8795 C.ar    1  UNL1        0.0296
     28 C           4.5335   42.8821    9.5370 C.ar    1  UNL1        0.0023
     29 C           5.8910   43.0062    9.2219 C.ar    1  UNL1       -0.0001
     30 C           6.2905   43.9278    8.2404 C.ar    1  UNL1        0.0023
     31 C           5.3390   44.7131    7.5828 C.ar    1  UNL1        0.0296
@<TRIPOS>BOND
     1    26    25    1
     2    27    28   ar
     3    29    23    1
     4    29    30   ar
     5    22    24    1
     6    22     6    1
     7     1     6    1
     8     1     2    1
     9     2     3    1
    10     3     4    1
    11     3    10    1
    12     4     5    1
    13     5     6    1
    14     7     8   ar
    15     9    13    1
    16     9    10   ar
    17    12    16    1
    18    17    21   ar
    19    18    19   ar
    20    20    16   ar
    21    31    26   ar
    22    10    11   ar
    23    13    12   am
    24    26    27   ar
    25    28    29   ar
    26    23    24    2
    27     7    11   ar
    28     8     9   ar
    29    12    14    2
    30    16    17   ar
    31    18    21   ar
    32    19    20   ar
    33    30    31   ar
    34    13    15    1
