@<TRIPOS>MOLECULE
MolPort-008-194-644 40745923 CSSS03437773503 MCULE-1851492700 PubChem-51999182 ZINC000040745923 ZINC40745923
 25 26 0 0 0
SMALL
GASTEIGER

@<TRIPOS>ATOM
      1 C          10.4974   41.0549    9.8140 C.ar    1  UNL1        0.1568
      2 C          11.2970   39.9653    6.5387 C.3     1  UNL1        0.1552
      3 C          12.2447   41.1354    8.5510 C.ar    1  UNL1        0.1330
      4 C          11.7881   41.5677    9.7804 C.ar    1  UNL1        0.0596
      5 N          10.2045   40.3971    8.6740 N.ar    1  UNL1       -0.1635
      6 N          11.2780   40.4500    7.9085 N.ar    1  UNL1       -0.2354
      7 C           9.5478   41.2293   10.9179 C.2     1  UNL1        0.2654
      8 O           9.9656   41.2479   12.1071 O.2     1  UNL1       -0.2684
      9 N           8.1519   41.3746   10.6405 N.am    1  UNL1       -0.2995
     10 H           7.8630   41.4219    9.7006 H       1  UNL1        0.1498
     11 C           7.1373   41.4559   11.6835 C.3     1  UNL1        0.0923
     12 C           5.7364   41.5055   11.0843 C.3     1  UNL1        0.0533
     13 C           5.7765   41.3416    9.5729 C.3     1  UNL1        0.1439
     14 O           4.5291   41.6465    9.0260 O.3     1  UNL1       -0.3537
     15 C           3.9407   43.9149    8.6386 C.3     1  UNL1        0.0346
     16 C           4.1388   42.8213    9.6673 C.3     1  UNL1        0.1422
     17 C          13.7997   42.6336    7.2076 C.2     1  UNL1        0.2566
     18 O          12.8582   43.2793    6.6731 O.2     1  UNL1       -0.2692
     19 N          13.5252   41.4796    8.0086 N.am    1  UNL1       -0.2656
     20 H          14.2767   40.8738    8.2024 H       1  UNL1        0.1566
     21 C          15.1895   43.0344    6.9616 C.ar    1  UNL1        0.0831
     22 C          16.2935   42.6171    7.6889 C.ar    1  UNL1        0.0116
     23 C          17.4942   43.1667    7.2162 C.ar    1  UNL1        0.0076
     24 C          17.3481   44.0149    6.1205 C.ar    1  UNL1        0.0356
     25 S          15.7082   44.0706    5.7496 S.2     1  UNL1       -0.0819
@<TRIPOS>BOND
     1    15    16    1
     2    16    14    1
     3    13    14    1
     4    13    12    1
     5    12    11    1
     6    11     9    1
     7     7     1    1
     8     2     6    1
     9     3    19    1
    10    17    21    1
    11    21    25   ar
    12    22    23   ar
    13    24    25   ar
    14     4     1   ar
    15     9     7   am
    16     6     5   ar
    17     6     3   ar
    18    19    17   am
    19     7     8    2
    20     1     5   ar
    21     3     4   ar
    22    17    18    2
    23    21    22   ar
    24    23    24   ar
    25     9    10    1
    26    19    20    1
@<TRIPOS>MOLECULE
MolPort-008-194-644 40745923 CSSS03437773503 MCULE-1851492700 PubChem-51999182 ZINC000040745923 ZINC40745923
 25 26 0 0 0
SMALL
GASTEIGER

@<TRIPOS>ATOM
      1 C           8.2663   40.7245    6.2013 C.ar    1  UNL1        0.1568
      2 C          10.8220   39.9744    3.8645 C.3     1  UNL1        0.1552
      3 C          10.2829   41.4094    5.8563 C.ar    1  UNL1        0.1330
      4 C           9.1877   41.6579    6.6596 C.ar    1  UNL1        0.0596
      5 N           8.7711   40.0020    5.1807 N.ar    1  UNL1       -0.1635
      6 N          10.0040   40.4261    4.9775 N.ar    1  UNL1       -0.2354
      7 C           6.9042   40.5579    6.7185 C.2     1  UNL1        0.2654
      8 O           6.0805   39.8363    6.0939 O.2     1  UNL1       -0.2684
      9 N           6.5154   41.2172    7.9271 N.am    1  UNL1       -0.2995
     10 H           7.1980   41.7204    8.4272 H       1  UNL1        0.1498
     11 C           5.1569   41.1792    8.4532 C.3     1  UNL1        0.0923
     12 C           4.9393   42.2735    9.4919 C.3     1  UNL1        0.0533
     13 C           3.5544   42.8887    9.3639 C.3     1  UNL1        0.1439
     14 O           2.6089   42.0701    9.9836 O.3     1  UNL1       -0.3537
     15 C           3.2972   40.9940   11.9863 C.3     1  UNL1        0.0346
     16 C           2.8029   42.2758   11.3488 C.3     1  UNL1        0.1422
     17 C          12.4872   42.1058    6.9162 C.2     1  UNL1        0.2566
     18 O          12.2265   41.5629    8.0237 O.2     1  UNL1       -0.2692
     19 N          11.4903   42.1796    5.8917 N.am    1  UNL1       -0.2656
     20 H          11.6470   42.8102    5.1521 H       1  UNL1        0.1566
     21 C          13.8032   42.7157    6.6958 C.ar    1  UNL1        0.0831
     22 C          14.9715   42.3844    7.3647 C.ar    1  UNL1        0.0116
     23 C          16.0745   43.1375    6.9360 C.ar    1  UNL1        0.0076
     24 C          15.7873   44.0611    5.9331 C.ar    1  UNL1        0.0356
     25 S          14.1462   43.9274    5.5886 S.2     1  UNL1       -0.0819
@<TRIPOS>BOND
     1    15    16    1
     2    16    14    1
     3    13    14    1
     4    13    12    1
     5    12    11    1
     6    11     9    1
     7     7     1    1
     8     2     6    1
     9     3    19    1
    10    17    21    1
    11    21    25   ar
    12    22    23   ar
    13    24    25   ar
    14     4     1   ar
    15     9     7   am
    16     6     5   ar
    17     6     3   ar
    18    19    17   am
    19     7     8    2
    20     1     5   ar
    21     3     4   ar
    22    17    18    2
    23    21    22   ar
    24    23    24   ar
    25     9    10    1
    26    19    20    1
@<TRIPOS>MOLECULE
MolPort-008-194-644 40745923 CSSS03437773503 MCULE-1851492700 PubChem-51999182 ZINC000040745923 ZINC40745923
 25 26 0 0 0
SMALL
GASTEIGER

@<TRIPOS>ATOM
      1 C           9.9501   42.3728    8.6126 C.ar    1  UNL1        0.1568
      2 C          11.4413   39.9427    6.5091 C.3     1  UNL1        0.1552
      3 C          11.9682   41.8553    8.0522 C.ar    1  UNL1        0.1330
      4 C          11.2637   42.7918    8.7826 C.ar    1  UNL1        0.0596
      5 N           9.8838   41.2887    7.8136 N.ar    1  UNL1       -0.1635
      6 N          11.1213   40.9785    7.4768 N.ar    1  UNL1       -0.2354
      7 C           8.7723   43.0330    9.1850 C.2     1  UNL1        0.2654
      8 O           8.6197   43.0685   10.4360 O.2     1  UNL1       -0.2684
      9 N           7.8007   43.6308    8.3218 N.am    1  UNL1       -0.2995
     10 H           7.9792   43.6449    7.3537 H       1  UNL1        0.1498
     11 C           6.5593   44.2199    8.8075 C.3     1  UNL1        0.0923
     12 C           5.3501   43.4230    8.3313 C.3     1  UNL1        0.0533
     13 C           5.0198   42.2930    9.2941 C.3     1  UNL1        0.1439
     14 O           4.0854   42.7259   10.2362 O.3     1  UNL1       -0.3537
     15 C           5.7089   41.3627   11.3078 C.3     1  UNL1        0.0346
     16 C           4.2969   41.9090   11.3460 C.3     1  UNL1        0.1422
     17 C          14.0802   42.8820    7.0763 C.2     1  UNL1        0.2566
     18 O          13.4536   43.6140    6.2635 O.2     1  UNL1       -0.2692
     19 N          13.3861   41.9001    7.8527 N.am    1  UNL1       -0.2656
     20 H          13.9264   41.1993    8.2842 H       1  UNL1        0.1566
     21 C          15.5386   42.9988    7.1869 C.ar    1  UNL1        0.0831
     22 C          16.3448   43.8283    6.4227 C.ar    1  UNL1        0.0116
     23 C          17.7026   43.7252    6.7587 C.ar    1  UNL1        0.0076
     24 C          17.9762   42.8209    7.7829 C.ar    1  UNL1        0.0356
     25 S          16.5083   42.1539    8.2628 S.2     1  UNL1       -0.0819
@<TRIPOS>BOND
     1    15    16    1
     2    16    14    1
     3    13    14    1
     4    13    12    1
     5    12    11    1
     6    11     9    1
     7     7     1    1
     8     2     6    1
     9     3    19    1
    10    17    21    1
    11    21    25   ar
    12    22    23   ar
    13    24    25   ar
    14     4     1   ar
    15     9     7   am
    16     6     5   ar
    17     6     3   ar
    18    19    17   am
    19     7     8    2
    20     1     5   ar
    21     3     4   ar
    22    17    18    2
    23    21    22   ar
    24    23    24   ar
    25     9    10    1
    26    19    20    1
@<TRIPOS>MOLECULE
MolPort-008-194-644 40745923 CSSS03437773503 MCULE-1851492700 PubChem-51999182 ZINC000040745923 ZINC40745923
 25 26 0 0 0
SMALL
GASTEIGER

@<TRIPOS>ATOM
      1 C           8.1719   40.5431    6.0980 C.ar    1  UNL1        0.1568
      2 C          10.7288   39.9542    3.7170 C.3     1  UNL1        0.1552
      3 C          10.1502   41.3265    5.7415 C.ar    1  UNL1        0.1330
      4 C           9.0552   41.5096    6.5625 C.ar    1  UNL1        0.0596
      5 N           8.6960   39.8633    5.0582 N.ar    1  UNL1       -0.1635
      6 N           9.9054   40.3474    4.8479 N.ar    1  UNL1       -0.2354
      7 C           6.8256   40.3046    6.6284 C.2     1  UNL1        0.2654
      8 O           6.0455   39.5174    6.0274 O.2     1  UNL1       -0.2684
      9 N           6.4026   40.9680    7.8231 N.am    1  UNL1       -0.2995
     10 H           7.0549   41.5253    8.3061 H       1  UNL1        0.1498
     11 C           5.0519   40.8582    8.3593 C.3     1  UNL1        0.0923
     12 C           4.8282   41.8530    9.4925 C.3     1  UNL1        0.0533
     13 C           3.3479   42.1396    9.6911 C.3     1  UNL1        0.1439
     14 O           3.0071   43.3435    9.0725 O.3     1  UNL1       -0.3537
     15 C           4.0661   44.9426    7.6711 C.3     1  UNL1        0.0346
     16 C           4.2269   43.9700    8.8209 C.3     1  UNL1        0.1422
     17 C          12.3644   42.0625    6.7529 C.2     1  UNL1        0.2566
     18 O          12.1777   41.4402    7.8332 O.2     1  UNL1       -0.2692
     19 N          11.3213   42.1509    5.7767 N.am    1  UNL1       -0.2656
     20 H          11.4163   42.8329    5.0730 H       1  UNL1        0.1566
     21 C          13.6401   42.7482    6.5183 C.ar    1  UNL1        0.0831
     22 C          13.8550   43.7685    5.6047 C.ar    1  UNL1        0.0116
     23 C          15.1796   44.2297    5.6079 C.ar    1  UNL1        0.0076
     24 C          16.0135   43.5823    6.5171 C.ar    1  UNL1        0.0356
     25 S          15.0813   42.4313    7.3148 S.2     1  UNL1       -0.0819
@<TRIPOS>BOND
     1    15    16    1
     2    16    14    1
     3    13    14    1
     4    13    12    1
     5    12    11    1
     6    11     9    1
     7     7     1    1
     8     2     6    1
     9     3    19    1
    10    17    21    1
    11    21    25   ar
    12    22    23   ar
    13    24    25   ar
    14     4     1   ar
    15     9     7   am
    16     6     5   ar
    17     6     3   ar
    18    19    17   am
    19     7     8    2
    20     1     5   ar
    21     3     4   ar
    22    17    18    2
    23    21    22   ar
    24    23    24   ar
    25     9    10    1
    26    19    20    1
@<TRIPOS>MOLECULE
MolPort-008-194-644 40745923 CSSS03437773503 MCULE-1851492700 PubChem-51999182 ZINC000040745923 ZINC40745923
 25 26 0 0 0
SMALL
GASTEIGER

@<TRIPOS>ATOM
      1 C          11.8629   41.8085    6.7553 C.ar    1  UNL1        0.1568
      2 C          15.0431   43.3690    6.6819 C.3     1  UNL1        0.1552
      3 C          13.8064   41.3768    7.5868 C.ar    1  UNL1        0.1330
      4 C          12.5077   40.9076    7.5937 C.ar    1  UNL1        0.0596
      5 N          12.7129   42.7576    6.3138 N.ar    1  UNL1       -0.1635
      6 N          13.8983   42.4855    6.8255 N.ar    1  UNL1       -0.2354
      7 C          10.4369   41.7734    6.4148 C.2     1  UNL1        0.2654
      8 O          10.0701   41.9929    5.2288 O.2     1  UNL1       -0.2684
      9 N           9.4687   41.4934    7.4300 N.am    1  UNL1       -0.2995
     10 H           9.7885   41.2617    8.3319 H       1  UNL1        0.1498
     11 C           8.0314   41.5350    7.1926 C.3     1  UNL1        0.0923
     12 C           7.4456   40.1294    7.1217 C.3     1  UNL1        0.0533
     13 C           8.4503   39.1409    6.5504 C.3     1  UNL1        0.1439
     14 O           8.2324   38.9754    5.1817 O.3     1  UNL1       -0.3537
     15 C           9.5578   38.9827    3.2105 C.3     1  UNL1        0.0346
     16 C           9.4704   38.5887    4.6703 C.3     1  UNL1        0.1422
     17 C          14.6944   40.1908    9.6537 C.2     1  UNL1        0.2566
     18 O          13.6307   40.3526   10.3106 O.2     1  UNL1       -0.2692
     19 N          14.8618   40.8174    8.3777 N.am    1  UNL1       -0.2656
     20 H          15.7754   40.8679    8.0144 H       1  UNL1        0.1566
     21 C          15.7905   39.4007   10.2254 C.ar    1  UNL1        0.0831
     22 C          17.1116   39.8073   10.3325 C.ar    1  UNL1        0.0116
     23 C          17.9316   38.8366   10.9262 C.ar    1  UNL1        0.0076
     24 C          17.2691   37.6660   11.2897 C.ar    1  UNL1        0.0356
     25 S          15.6531   37.8559   10.8630 S.2     1  UNL1       -0.0819
@<TRIPOS>BOND
     1    15    16    1
     2    16    14    1
     3    13    14    1
     4    13    12    1
     5    12    11    1
     6    11     9    1
     7     7     1    1
     8     2     6    1
     9     3    19    1
    10    17    21    1
    11    21    25   ar
    12    22    23   ar
    13    24    25   ar
    14     4     1   ar
    15     9     7   am
    16     6     5   ar
    17     6     3   ar
    18    19    17   am
    19     7     8    2
    20     1     5   ar
    21     3     4   ar
    22    17    18    2
    23    21    22   ar
    24    23    24   ar
    25     9    10    1
    26    19    20    1
@<TRIPOS>MOLECULE
MolPort-008-194-644 40745923 CSSS03437773503 MCULE-1851492700 PubChem-51999182 ZINC000040745923 ZINC40745923
 25 26 0 0 0
SMALL
GASTEIGER

@<TRIPOS>ATOM
      1 C           8.2323   40.7093    6.2001 C.ar    1  UNL1        0.1568
      2 C          10.6907   40.0246    3.7421 C.3     1  UNL1        0.1552
      3 C          10.2483   41.3746    5.8154 C.ar    1  UNL1        0.1330
      4 C           9.1864   41.6043    6.6677 C.ar    1  UNL1        0.0596
      5 N           8.6876   40.0264    5.1303 N.ar    1  UNL1       -0.1635
      6 N           9.9205   40.4381    4.9029 N.ar    1  UNL1       -0.2354
      7 C           6.8860   40.5425    6.7572 C.2     1  UNL1        0.2654
      8 O           6.0190   39.8892    6.1162 O.2     1  UNL1       -0.2684
      9 N           6.5618   41.1241    8.0233 N.am    1  UNL1       -0.2995
     10 H           7.2768   41.5722    8.5304 H       1  UNL1        0.1498
     11 C           5.2231   41.0847    8.5981 C.3     1  UNL1        0.0923
     12 C           5.2606   41.3611   10.0968 C.3     1  UNL1        0.0533
     13 C           6.6807   41.6211   10.5748 C.3     1  UNL1        0.1439
     14 O           6.7944   41.3041   11.9293 O.3     1  UNL1       -0.3537
     15 C           8.9556   41.6534   11.0074 C.3     1  UNL1        0.0346
     16 C           8.1070   41.6362   12.2617 C.3     1  UNL1        0.1422
     17 C          12.3727   42.1878    6.9525 C.2     1  UNL1        0.2566
     18 O          12.0015   41.8239    8.1009 O.2     1  UNL1       -0.2692
     19 N          11.4705   42.1213    5.8432 N.am    1  UNL1       -0.2656
     20 H          11.7091   42.6296    5.0345 H       1  UNL1        0.1566
     21 C          13.7204   42.7355    6.7621 C.ar    1  UNL1        0.0831
     22 C          14.8737   42.2829    7.3842 C.ar    1  UNL1        0.0116
     23 C          16.0151   43.0024    7.0011 C.ar    1  UNL1        0.0076
     24 C          15.7732   44.0200    6.0806 C.ar    1  UNL1        0.0356
     25 S          14.1236   44.0112    5.7513 S.2     1  UNL1       -0.0819
@<TRIPOS>BOND
     1    15    16    1
     2    16    14    1
     3    13    14    1
     4    13    12    1
     5    12    11    1
     6    11     9    1
     7     7     1    1
     8     2     6    1
     9     3    19    1
    10    17    21    1
    11    21    25   ar
    12    22    23   ar
    13    24    25   ar
    14     4     1   ar
    15     9     7   am
    16     6     5   ar
    17     6     3   ar
    18    19    17   am
    19     7     8    2
    20     1     5   ar
    21     3     4   ar
    22    17    18    2
    23    21    22   ar
    24    23    24   ar
    25     9    10    1
    26    19    20    1
@<TRIPOS>MOLECULE
MolPort-008-194-644 40745923 CSSS03437773503 MCULE-1851492700 PubChem-51999182 ZINC000040745923 ZINC40745923
 25 26 0 0 0
SMALL
GASTEIGER

@<TRIPOS>ATOM
      1 C          13.1324   39.1936   10.6024 C.ar    1  UNL1        0.1568
      2 C          10.4321   37.9052    8.7044 C.3     1  UNL1        0.1552
      3 C          11.1616   39.8881   10.0655 C.ar    1  UNL1        0.1330
      4 C          12.2539   40.2452   10.8311 C.ar    1  UNL1        0.0596
      5 N          12.5844   38.2690    9.7880 N.ar    1  UNL1       -0.1635
      6 N          11.3809   38.7020    9.4637 N.ar    1  UNL1       -0.2354
      7 C          14.4692   39.0663   11.1919 C.2     1  UNL1        0.2654
      8 O          14.5907   38.8035   12.4189 O.2     1  UNL1       -0.2684
      9 N          15.6288   39.2439   10.3732 N.am    1  UNL1       -0.2995
     10 H          15.5035   39.3832    9.4067 H       1  UNL1        0.1498
     11 C          16.9867   39.2284   10.9021 C.3     1  UNL1        0.0923
     12 C          17.4817   37.8006   11.1027 C.3     1  UNL1        0.0533
     13 C          17.5753   37.0577    9.7790 C.3     1  UNL1        0.1439
     14 O          16.5832   36.0785    9.7096 O.3     1  UNL1       -0.3537
     15 C          14.9076   36.2850    8.0387 C.3     1  UNL1        0.0346
     16 C          16.3432   35.9135    8.3462 C.3     1  UNL1        0.1422
     17 C           9.5708   41.5666    9.0077 C.2     1  UNL1        0.2566
     18 O          10.4407   42.0263    8.2195 O.2     1  UNL1       -0.2692
     19 N           9.9369   40.6302   10.0264 N.am    1  UNL1       -0.2656
     20 H           9.2956   40.4845   10.7591 H       1  UNL1        0.1566
     21 C           8.1840   42.0369    8.9164 C.ar    1  UNL1        0.0831
     22 C           7.0523   41.2388    8.9826 C.ar    1  UNL1        0.0116
     23 C           5.8629   41.9732    8.8679 C.ar    1  UNL1        0.0076
     24 C           6.0454   43.3457    8.7120 C.ar    1  UNL1        0.0356
     25 S           7.7032   43.6312    8.7192 S.2     1  UNL1       -0.0819
@<TRIPOS>BOND
     1    15    16    1
     2    16    14    1
     3    13    14    1
     4    13    12    1
     5    12    11    1
     6    11     9    1
     7     7     1    1
     8     2     6    1
     9     3    19    1
    10    17    21    1
    11    21    25   ar
    12    22    23   ar
    13    24    25   ar
    14     4     1   ar
    15     9     7   am
    16     6     5   ar
    17     6     3   ar
    18    19    17   am
    19     7     8    2
    20     1     5   ar
    21     3     4   ar
    22    17    18    2
    23    21    22   ar
    24    23    24   ar
    25     9    10    1
    26    19    20    1
@<TRIPOS>MOLECULE
MolPort-008-194-644 40745923 CSSS03437773503 MCULE-1851492700 PubChem-51999182 ZINC000040745923 ZINC40745923
 25 26 0 0 0
SMALL
GASTEIGER

@<TRIPOS>ATOM
      1 C          11.2262   41.5470    9.7580 C.ar    1  UNL1        0.1568
      2 C           9.0083   44.3030    9.9570 C.3     1  UNL1        0.1552
      3 C           9.0846   41.7933    9.8459 C.ar    1  UNL1        0.1330
      4 C          10.0473   40.8141    9.7004 C.ar    1  UNL1        0.0596
      5 N          10.9747   42.8647    9.8941 N.ar    1  UNL1       -0.1635
      6 N           9.6638   43.0061    9.9484 N.ar    1  UNL1       -0.2354
      7 C          12.5762   40.9852    9.6463 C.2     1  UNL1        0.2654
      8 O          13.2576   41.1934    8.6063 O.2     1  UNL1       -0.2684
      9 N          13.1124   40.2013   10.7161 N.am    1  UNL1       -0.2995
     10 H          12.5837   40.1106   11.5416 H       1  UNL1        0.1498
     11 C          14.4043   39.5308   10.6418 C.3     1  UNL1        0.0923
     12 C          14.6557   38.6839   11.8842 C.3     1  UNL1        0.0533
     13 C          15.2839   37.3469   11.5229 C.3     1  UNL1        0.1439
     14 O          16.6164   37.3175   11.9373 O.3     1  UNL1       -0.3537
     15 C          18.2135   38.6948   10.8443 C.3     1  UNL1        0.0346
     16 C          17.3556   37.4494   10.7626 C.3     1  UNL1        0.1422
     17 C           6.7685   41.6158   10.8809 C.2     1  UNL1        0.2566
     18 O           7.2019   41.6160   12.0647 O.2     1  UNL1       -0.2692
     19 N           7.6755   41.5443    9.7760 N.am    1  UNL1       -0.2656
     20 H           7.3010   41.3050    8.8975 H       1  UNL1        0.1566
     21 C           5.3222   41.6323   10.6348 C.ar    1  UNL1        0.0831
     22 C           4.3453   41.2015   11.5191 C.ar    1  UNL1        0.0116
     23 C           3.0478   41.3429   11.0055 C.ar    1  UNL1        0.0076
     24 C           2.9913   41.8826    9.7222 C.ar    1  UNL1        0.0356
     25 S           4.5744   42.1805    9.2376 S.2     1  UNL1       -0.0819
@<TRIPOS>BOND
     1    15    16    1
     2    16    14    1
     3    13    14    1
     4    13    12    1
     5    12    11    1
     6    11     9    1
     7     7     1    1
     8     2     6    1
     9     3    19    1
    10    17    21    1
    11    21    25   ar
    12    22    23   ar
    13    24    25   ar
    14     4     1   ar
    15     9     7   am
    16     6     5   ar
    17     6     3   ar
    18    19    17   am
    19     7     8    2
    20     1     5   ar
    21     3     4   ar
    22    17    18    2
    23    21    22   ar
    24    23    24   ar
    25     9    10    1
    26    19    20    1
@<TRIPOS>MOLECULE
MolPort-008-194-644 40745923 CSSS03437773503 MCULE-1851492700 PubChem-51999182 ZINC000040745923 ZINC40745923
 25 26 0 0 0
SMALL
GASTEIGER

@<TRIPOS>ATOM
      1 C          10.2966   41.7427    9.3989 C.ar    1  UNL1        0.1568
      2 C          12.5705   41.0196    6.7796 C.3     1  UNL1        0.1552
      3 C          12.3490   41.0878    9.2822 C.ar    1  UNL1        0.1330
      4 C          11.3931   41.4637   10.2051 C.ar    1  UNL1        0.0596
      5 N          10.5954   41.5751    8.0947 N.ar    1  UNL1       -0.1635
      6 N          11.8508   41.1736    8.0326 N.ar    1  UNL1       -0.2354
      7 C           8.9890   42.2000    9.8802 C.2     1  UNL1        0.2654
      8 O           8.9247   43.0243   10.8319 O.2     1  UNL1       -0.2684
      9 N           7.7929   41.7069    9.2699 N.am    1  UNL1       -0.2995
     10 H           7.8753   41.1156    8.4871 H       1  UNL1        0.1498
     11 C           6.4581   42.0382    9.7521 C.3     1  UNL1        0.0923
     12 C           6.2049   41.4322   11.1278 C.3     1  UNL1        0.0533
     13 C           4.7248   41.1602   11.3472 C.3     1  UNL1        0.1439
     14 O           4.0095   42.3584   11.3185 O.3     1  UNL1       -0.3537
     15 C           2.8088   41.3031    9.5615 C.3     1  UNL1        0.0346
     16 C           2.7281   41.9961   10.9058 C.3     1  UNL1        0.1422
     17 C          14.1096   39.7365   10.5237 C.2     1  UNL1        0.2566
     18 O          13.2785   39.2202   11.3187 O.2     1  UNL1       -0.2692
     19 N          13.7044   40.7703    9.6206 N.am    1  UNL1       -0.2656
     20 H          14.4140   41.3062    9.1980 H       1  UNL1        0.1566
     21 C          15.5141   39.3142   10.5629 C.ar    1  UNL1        0.0831
     22 C          16.5815   39.9991   10.0028 C.ar    1  UNL1        0.0116
     23 C          17.8086   39.3503   10.2048 C.ar    1  UNL1        0.0076
     24 C          17.7196   38.1581   10.9205 C.ar    1  UNL1        0.0356
     25 S          16.0970   37.9240   11.2973 S.2     1  UNL1       -0.0819
@<TRIPOS>BOND
     1    15    16    1
     2    16    14    1
     3    13    14    1
     4    13    12    1
     5    12    11    1
     6    11     9    1
     7     7     1    1
     8     2     6    1
     9     3    19    1
    10    17    21    1
    11    21    25   ar
    12    22    23   ar
    13    24    25   ar
    14     4     1   ar
    15     9     7   am
    16     6     5   ar
    17     6     3   ar
    18    19    17   am
    19     7     8    2
    20     1     5   ar
    21     3     4   ar
    22    17    18    2
    23    21    22   ar
    24    23    24   ar
    25     9    10    1
    26    19    20    1
@<TRIPOS>MOLECULE
MolPort-008-194-644 40745923 CSSS03437773503 MCULE-1851492700 PubChem-51999182 ZINC000040745923 ZINC40745923
 25 26 0 0 0
SMALL
GASTEIGER

@<TRIPOS>ATOM
      1 C          10.7588   40.6428    9.6091 C.ar    1  UNL1        0.1568
      2 C          13.4020   38.2840    9.5465 C.3     1  UNL1        0.1552
      3 C          12.8894   40.7301    9.2806 C.ar    1  UNL1        0.1330
      4 C          11.7671   41.5344    9.2650 C.ar    1  UNL1        0.0596
      5 N          11.2473   39.3979    9.7821 N.ar    1  UNL1       -0.1635
      6 N          12.5499   39.4606    9.5809 N.ar    1  UNL1       -0.2354
      7 C           9.3375   40.9820    9.7332 C.2     1  UNL1        0.2654
      8 O           8.8813   41.3749   10.8408 O.2     1  UNL1       -0.2684
      9 N           8.4748   40.8627    8.5983 N.am    1  UNL1       -0.2995
     10 H           8.8716   40.6166    7.7315 H       1  UNL1        0.1498
     11 C           7.0365   41.0880    8.6643 C.3     1  UNL1        0.0923
     12 C           6.3688   40.7692    7.3315 C.3     1  UNL1        0.0533
     13 C           7.2079   39.8017    6.5113 C.3     1  UNL1        0.1439
     14 O           7.7000   40.4424    5.3731 O.3     1  UNL1       -0.3537
     15 C           9.1896   38.7001    5.9959 C.3     1  UNL1        0.0346
     16 C           9.0257   40.0221    5.2754 C.3     1  UNL1        0.1422
     17 C          14.5143   41.9216    7.7292 C.2     1  UNL1        0.2566
     18 O          13.6953   41.9787    6.7726 O.2     1  UNL1       -0.2692
     19 N          14.1988   41.1790    8.9114 N.am    1  UNL1       -0.2656
     20 H          14.9411   40.9590    9.5196 H       1  UNL1        0.1566
     21 C          15.8228   42.5742    7.6078 C.ar    1  UNL1        0.0831
     22 C          16.9280   42.3277    8.4077 C.ar    1  UNL1        0.0116
     23 C          18.0406   43.1032    8.0500 C.ar    1  UNL1        0.0076
     24 C          17.8237   43.9606    6.9734 C.ar    1  UNL1        0.0356
     25 S          16.2324   43.7402    6.4744 S.2     1  UNL1       -0.0819
@<TRIPOS>BOND
     1    15    16    1
     2    16    14    1
     3    13    14    1
     4    13    12    1
     5    12    11    1
     6    11     9    1
     7     7     1    1
     8     2     6    1
     9     3    19    1
    10    17    21    1
    11    21    25   ar
    12    22    23   ar
    13    24    25   ar
    14     4     1   ar
    15     9     7   am
    16     6     5   ar
    17     6     3   ar
    18    19    17   am
    19     7     8    2
    20     1     5   ar
    21     3     4   ar
    22    17    18    2
    23    21    22   ar
    24    23    24   ar
    25     9    10    1
    26    19    20    1
