@<TRIPOS>MOLECULE
MolPort-007-723-448 6818299 ChemDiv-E157-5478 MCULE-4631826537 PubChem-22518010 ZINC000006818299 ZINC06818299
 25 26 0 0 0
SMALL
GASTEIGER

@<TRIPOS>ATOM
      1 C          12.3567   41.8675    6.9152 C.ar    1  UNL1        0.1893
      2 C          10.1487   40.9868    6.6950 C.ar    1  UNL1        0.2593
      3 N          11.7672   42.2065    5.7471 N.ar    1  UNL1       -0.1239
      4 N          10.5361   41.7141    5.6248 N.ar    1  UNL1       -0.1187
      5 S          11.3511   40.9175    7.8726 S.2     1  UNL1       -0.0102
      6 C          14.3483   43.4420    6.8315 C.2     1  UNL1        0.2271
      7 O          13.7851   44.2307    6.0270 O.2     1  UNL1       -0.2747
      8 N          13.6775   42.2630    7.2959 N.am    1  UNL1       -0.2627
      9 H          14.1630   41.6813    7.9246 H       1  UNL1        0.1568
     10 C          15.7319   43.7496    7.2994 C.3     1  UNL1        0.0769
     11 C          17.2867   42.5566    8.8532 C.3     1  UNL1        0.0005
     12 C          16.4826   42.4521    7.5714 C.3     1  UNL1        0.0091
     13 C          16.4523   44.5925    6.2549 C.3     1  UNL1        0.0091
     14 C          17.5700   43.8003    5.6043 C.3     1  UNL1        0.0005
     15 O           8.7665   38.7963    7.3380 O.2     1  UNL1       -0.1477
     16 O           7.9653   40.1353    5.4537 O.2     1  UNL1       -0.1477
     17 S           8.5907   40.1959    6.8194 S.O2    1  UNL1        0.1010
     18 C           6.1288   40.8751    7.8168 C.3     1  UNL1        0.1392
     19 N           7.5672   41.0857    7.9075 N.pl3   1  UNL1       -0.1870
     20 C           8.1109   42.0226    8.8594 C.ar    1  UNL1        0.0689
     21 C           8.1032   43.4017    8.5879 C.ar    1  UNL1        0.0161
     22 C           8.6328   44.3120    9.5068 C.ar    1  UNL1        0.0013
     23 C           9.1768   43.8543   10.7091 C.ar    1  UNL1        0.0001
     24 C           9.1907   42.4870   10.9925 C.ar    1  UNL1        0.0013
     25 C           8.6607   41.5775   10.0732 C.ar    1  UNL1        0.0161
@<TRIPOS>BOND
     1    11    12    1
     2    12    10    1
     3    10    13    1
     4    10     6    1
     5    13    14    1
     6     6     8   am
     7     1     5   ar
     8     2     5   ar
     9    18    19    1
    10    21    22   ar
    11    23    24   ar
    12    25    20   ar
    13     8     1    1
    14     3     4   ar
    15    19    20    1
    16    17     2    1
    17    17    19    1
    18     6     7    2
    19     1     3   ar
    20     2     4   ar
    21    20    21   ar
    22    22    23   ar
    23    24    25   ar
    24    17    15    2
    25    17    16    2
    26     8     9    1
@<TRIPOS>MOLECULE
MolPort-007-723-448 6818299 ChemDiv-E157-5478 MCULE-4631826537 PubChem-22518010 ZINC000006818299 ZINC06818299
 25 26 0 0 0
SMALL
GASTEIGER

@<TRIPOS>ATOM
      1 C           9.0466   40.8228    8.6698 C.ar    1  UNL1        0.1893
      2 C          11.1911   41.4026    7.7957 C.ar    1  UNL1        0.2593
      3 N           9.3459   40.1663    7.5269 N.ar    1  UNL1       -0.1239
      4 N          10.5417   40.4910    7.0397 N.ar    1  UNL1       -0.1187
      5 S          10.2839   41.8620    9.1385 S.2     1  UNL1       -0.0102
      6 C           6.5918   41.3239    9.0887 C.2     1  UNL1        0.2271
      7 O           6.5124   42.1214    8.1170 O.2     1  UNL1       -0.2747
      8 N           7.8251   40.6606    9.3963 N.am    1  UNL1       -0.2627
      9 H           7.8318   40.0467   10.1659 H       1  UNL1        0.1568
     10 C           5.3796   41.0751    9.9233 C.3     1  UNL1        0.0769
     11 C           7.0437   41.9821   11.5552 C.3     1  UNL1        0.0005
     12 C           5.7259   41.2480   11.3968 C.3     1  UNL1        0.0091
     13 C           4.2644   42.0253    9.5060 C.3     1  UNL1        0.0091
     14 C           2.9443   41.2870    9.3948 C.3     1  UNL1        0.0005
     15 O          12.8573   43.4873    7.7993 O.2     1  UNL1       -0.1477
     16 O          12.9892   41.9282    5.9185 O.2     1  UNL1       -0.1477
     17 S          12.7745   42.0402    7.4021 S.O2    1  UNL1        0.1010
     18 C          15.3830   41.5567    8.0940 C.3     1  UNL1        0.1392
     19 N          13.9959   41.1419    8.2533 N.pl3   1  UNL1       -0.1870
     20 C          13.6618   40.0059    9.0763 C.ar    1  UNL1        0.0689
     21 C          13.6489   40.1185   10.4774 C.ar    1  UNL1        0.0161
     22 C          13.3290   39.0183   11.2779 C.ar    1  UNL1        0.0013
     23 C          13.0178   37.7916   10.6872 C.ar    1  UNL1        0.0001
     24 C          13.0260   37.6652    9.2964 C.ar    1  UNL1        0.0013
     25 C          13.3458   38.7658    8.4968 C.ar    1  UNL1        0.0161
@<TRIPOS>BOND
     1    11    12    1
     2    12    10    1
     3    10    13    1
     4    10     6    1
     5    13    14    1
     6     6     8   am
     7     1     5   ar
     8     2     5   ar
     9    18    19    1
    10    21    22   ar
    11    23    24   ar
    12    25    20   ar
    13     8     1    1
    14     3     4   ar
    15    19    20    1
    16    17     2    1
    17    17    19    1
    18     6     7    2
    19     1     3   ar
    20     2     4   ar
    21    20    21   ar
    22    22    23   ar
    23    24    25   ar
    24    17    15    2
    25    17    16    2
    26     8     9    1
@<TRIPOS>MOLECULE
MolPort-007-723-448 6818299 ChemDiv-E157-5478 MCULE-4631826537 PubChem-22518010 ZINC000006818299 ZINC06818299
 25 26 0 0 0
SMALL
GASTEIGER

@<TRIPOS>ATOM
      1 C          12.0749   40.8698    9.5890 C.ar    1  UNL1        0.1893
      2 C           9.8711   41.7477    9.3211 C.ar    1  UNL1        0.2593
      3 N          11.1239   39.9098    9.5632 N.ar    1  UNL1       -0.1239
      4 N           9.8950   40.4005    9.4146 N.ar    1  UNL1       -0.1187
      5 S          11.4167   42.4093    9.4245 S.2     1  UNL1       -0.0102
      6 C          14.4765   40.9211    8.7628 C.2     1  UNL1        0.2271
      7 O          14.1659   41.4580    7.6665 O.2     1  UNL1       -0.2747
      8 N          13.4741   40.6143    9.7410 N.am    1  UNL1       -0.2627
      9 H          13.7714   40.1959   10.5811 H       1  UNL1        0.1568
     10 C          15.9096   40.6047    9.0349 C.3     1  UNL1        0.0769
     11 C          17.5644   42.2005    8.0500 C.3     1  UNL1        0.0005
     12 C          16.6889   41.8959    9.2505 C.3     1  UNL1        0.0091
     13 C          16.0127   39.6915   10.2498 C.3     1  UNL1        0.0091
     14 C          17.4500   39.5880   10.7226 C.3     1  UNL1        0.0005
     15 O           7.8570   42.5167    7.7483 O.2     1  UNL1       -0.1477
     16 O           8.7161   44.1345    9.3701 O.2     1  UNL1       -0.1477
     17 S           8.4011   42.6828    9.1393 S.O2    1  UNL1        0.1010
     18 C           7.6839   41.6767   11.5868 C.3     1  UNL1        0.1392
     19 N           7.2144   42.1379   10.2874 N.pl3   1  UNL1       -0.1870
     20 C           5.8084   42.1168    9.9677 C.ar    1  UNL1        0.0689
     21 C           5.1894   43.2417    9.3959 C.ar    1  UNL1        0.0161
     22 C           3.8260   43.2257    9.0883 C.ar    1  UNL1        0.0013
     23 C           3.0646   42.0841    9.3486 C.ar    1  UNL1        0.0001
     24 C           3.6665   40.9588    9.9159 C.ar    1  UNL1        0.0013
     25 C           5.0297   40.9757   10.2230 C.ar    1  UNL1        0.0161
@<TRIPOS>BOND
     1    11    12    1
     2    12    10    1
     3    10    13    1
     4    10     6    1
     5    13    14    1
     6     6     8   am
     7     1     5   ar
     8     2     5   ar
     9    18    19    1
    10    21    22   ar
    11    23    24   ar
    12    25    20   ar
    13     8     1    1
    14     3     4   ar
    15    19    20    1
    16    17     2    1
    17    17    19    1
    18     6     7    2
    19     1     3   ar
    20     2     4   ar
    21    20    21   ar
    22    22    23   ar
    23    24    25   ar
    24    17    15    2
    25    17    16    2
    26     8     9    1
@<TRIPOS>MOLECULE
MolPort-007-723-448 6818299 ChemDiv-E157-5478 MCULE-4631826537 PubChem-22518010 ZINC000006818299 ZINC06818299
 25 26 0 0 0
SMALL
GASTEIGER

@<TRIPOS>ATOM
      1 C          11.6585   41.2443    6.3194 C.ar    1  UNL1        0.1893
      2 C           9.2775   41.0732    6.2936 C.ar    1  UNL1        0.2593
      3 N          11.1584   41.0259    5.0829 N.ar    1  UNL1       -0.1239
      4 N           9.8305   40.9298    5.0696 N.ar    1  UNL1       -0.1187
      5 S          10.4444   41.3298    7.4809 S.2     1  UNL1       -0.0102
      6 C          13.7718   42.6231    6.6115 C.2     1  UNL1        0.2271
      7 O          13.1904   43.7074    6.3415 O.2     1  UNL1       -0.2747
      8 N          13.0517   41.3833    6.6124 N.am    1  UNL1       -0.2627
      9 H          13.5543   40.5656    6.8312 H       1  UNL1        0.1568
     10 C          15.2294   42.6425    6.9324 C.3     1  UNL1        0.0769
     11 C          16.9016   44.2985    6.0861 C.3     1  UNL1        0.0005
     12 C          15.7191   44.0829    7.0111 C.3     1  UNL1        0.0091
     13 C          15.4771   41.9057    8.2425 C.3     1  UNL1        0.0091
     14 C          16.9461   41.9554    8.6163 C.3     1  UNL1        0.0005
     15 O           7.1337   39.5383    6.7062 O.2     1  UNL1       -0.1477
     16 O           6.8216   41.6160    5.4528 O.2     1  UNL1       -0.1477
     17 S           7.5552   40.9769    6.5986 S.O2    1  UNL1        0.1010
     18 C           8.0132   41.5267    9.2453 C.3     1  UNL1        0.1392
     19 N           7.1766   41.7974    8.0841 N.pl3   1  UNL1       -0.1870
     20 C           6.0585   42.7028    8.1829 C.ar    1  UNL1        0.0689
     21 C           4.9333   42.3660    8.9550 C.ar    1  UNL1        0.0161
     22 C           3.8464   43.2398    9.0496 C.ar    1  UNL1        0.0013
     23 C           3.8715   44.4615    8.3734 C.ar    1  UNL1        0.0001
     24 C           4.9831   44.8096    7.6030 C.ar    1  UNL1        0.0013
     25 C           6.0694   43.9354    7.5091 C.ar    1  UNL1        0.0161
@<TRIPOS>BOND
     1    11    12    1
     2    12    10    1
     3    10    13    1
     4    10     6    1
     5    13    14    1
     6     6     8   am
     7     1     5   ar
     8     2     5   ar
     9    18    19    1
    10    21    22   ar
    11    23    24   ar
    12    25    20   ar
    13     8     1    1
    14     3     4   ar
    15    19    20    1
    16    17     2    1
    17    17    19    1
    18     6     7    2
    19     1     3   ar
    20     2     4   ar
    21    20    21   ar
    22    22    23   ar
    23    24    25   ar
    24    17    15    2
    25    17    16    2
    26     8     9    1
@<TRIPOS>MOLECULE
MolPort-007-723-448 6818299 ChemDiv-E157-5478 MCULE-4631826537 PubChem-22518010 ZINC000006818299 ZINC06818299
 25 26 0 0 0
SMALL
GASTEIGER

@<TRIPOS>ATOM
      1 C          11.4759   41.3370    6.3253 C.ar    1  UNL1        0.1893
      2 C           9.0958   41.3634    6.1429 C.ar    1  UNL1        0.2593
      3 N          11.0352   40.9401    5.1108 N.ar    1  UNL1       -0.1239
      4 N           9.7075   40.9544    5.0103 N.ar    1  UNL1       -0.1187
      5 S          10.2056   41.7332    7.3547 S.2     1  UNL1       -0.0102
      6 C          13.6975   42.5550    6.5094 C.2     1  UNL1        0.2271
      7 O          13.2485   43.6074    5.9826 O.2     1  UNL1       -0.2747
      8 N          12.8550   41.4102    6.6977 N.am    1  UNL1       -0.2627
      9 H          13.2563   40.6140    7.1151 H       1  UNL1        0.1568
     10 C          15.1265   42.5117    6.9383 C.3     1  UNL1        0.0769
     11 C          16.7418   44.2096    6.0648 C.3     1  UNL1        0.0005
     12 C          15.6604   43.9303    7.0911 C.3     1  UNL1        0.0091
     13 C          15.2481   41.7354    8.2434 C.3     1  UNL1        0.0091
     14 C          16.6862   41.7176    8.7248 C.3     1  UNL1        0.0005
     15 O           6.7116   40.2109    5.8122 O.2     1  UNL1       -0.1477
     16 O           6.8534   42.6360    5.5222 O.2     1  UNL1       -0.1477
     17 S           7.3566   41.4682    6.3239 S.O2    1  UNL1        0.1010
     18 C           5.8807   40.8596    8.5529 C.3     1  UNL1        0.1392
     19 N           6.9538   41.6764    8.0025 N.pl3   1  UNL1       -0.1870
     20 C           7.6376   42.6399    8.8292 C.ar    1  UNL1        0.0689
     21 C           8.3305   42.2285    9.9810 C.ar    1  UNL1        0.0161
     22 C           8.9912   43.1604   10.7863 C.ar    1  UNL1        0.0013
     23 C           8.9674   44.5157   10.4497 C.ar    1  UNL1        0.0001
     24 C           8.2835   44.9389    9.3080 C.ar    1  UNL1        0.0013
     25 C           7.6233   44.0064    8.5033 C.ar    1  UNL1        0.0161
@<TRIPOS>BOND
     1    11    12    1
     2    12    10    1
     3    10    13    1
     4    10     6    1
     5    13    14    1
     6     6     8   am
     7     1     5   ar
     8     2     5   ar
     9    18    19    1
    10    21    22   ar
    11    23    24   ar
    12    25    20   ar
    13     8     1    1
    14     3     4   ar
    15    19    20    1
    16    17     2    1
    17    17    19    1
    18     6     7    2
    19     1     3   ar
    20     2     4   ar
    21    20    21   ar
    22    22    23   ar
    23    24    25   ar
    24    17    15    2
    25    17    16    2
    26     8     9    1
@<TRIPOS>MOLECULE
MolPort-007-723-448 6818299 ChemDiv-E157-5478 MCULE-4631826537 PubChem-22518010 ZINC000006818299 ZINC06818299
 25 26 0 0 0
SMALL
GASTEIGER

@<TRIPOS>ATOM
      1 C           6.4501   40.3284    7.0012 C.ar    1  UNL1        0.1893
      2 C           8.6285   40.0906    6.0539 C.ar    1  UNL1        0.2593
      3 N           6.5122   39.3644    6.0559 N.ar    1  UNL1       -0.1239
      4 N           7.7274   39.2331    5.5275 N.ar    1  UNL1       -0.1187
      5 S           7.9379   41.0800    7.2292 S.2     1  UNL1       -0.0102
      6 C           5.2323   41.1294    9.0816 C.2     1  UNL1        0.2271
      7 O           6.2953   41.2552    9.7455 O.2     1  UNL1       -0.2747
      8 N           5.2642   40.6750    7.7221 N.am    1  UNL1       -0.2627
      9 H           4.4046   40.5954    7.2488 H       1  UNL1        0.1568
     10 C           3.9292   41.4604    9.7299 C.3     1  UNL1        0.0769
     11 C           3.9667   40.1326   11.8490 C.3     1  UNL1        0.0005
     12 C           4.1068   41.5155   11.2419 C.3     1  UNL1        0.0091
     13 C           3.4082   42.7859    9.1893 C.3     1  UNL1        0.0091
     14 C           4.5574   43.7163    8.8517 C.3     1  UNL1        0.0005
     15 O          10.5512   41.4469    4.7948 O.2     1  UNL1       -0.1477
     16 O          10.5952   39.0054    4.6442 O.2     1  UNL1       -0.1477
     17 S          10.3037   40.1704    5.5484 S.O2    1  UNL1        0.1010
     18 C          10.9610   39.2411    8.0427 C.3     1  UNL1        0.1392
     19 N          11.3398   40.1190    6.9439 N.pl3   1  UNL1       -0.1870
     20 C          12.5277   40.9317    7.0327 C.ar    1  UNL1        0.0689
     21 C          12.7120   42.0236    6.1669 C.ar    1  UNL1        0.0161
     22 C          13.8640   42.8110    6.2480 C.ar    1  UNL1        0.0013
     23 C          14.8460   42.5164    7.1964 C.ar    1  UNL1        0.0001
     24 C          14.6761   41.4350    8.0636 C.ar    1  UNL1        0.0013
     25 C          13.5239   40.6483    7.9818 C.ar    1  UNL1        0.0161
@<TRIPOS>BOND
     1    11    12    1
     2    12    10    1
     3    10    13    1
     4    10     6    1
     5    13    14    1
     6     6     8   am
     7     1     5   ar
     8     2     5   ar
     9    18    19    1
    10    21    22   ar
    11    23    24   ar
    12    25    20   ar
    13     8     1    1
    14     3     4   ar
    15    19    20    1
    16    17     2    1
    17    17    19    1
    18     6     7    2
    19     1     3   ar
    20     2     4   ar
    21    20    21   ar
    22    22    23   ar
    23    24    25   ar
    24    17    15    2
    25    17    16    2
    26     8     9    1
@<TRIPOS>MOLECULE
MolPort-007-723-448 6818299 ChemDiv-E157-5478 MCULE-4631826537 PubChem-22518010 ZINC000006818299 ZINC06818299
 25 26 0 0 0
SMALL
GASTEIGER

@<TRIPOS>ATOM
      1 C          11.7845   42.0088    7.1392 C.ar    1  UNL1        0.1893
      2 C           9.5352   41.3286    6.7180 C.ar    1  UNL1        0.2593
      3 N          11.6049   41.5233    5.8907 N.ar    1  UNL1       -0.1239
      4 N          10.3503   41.1433    5.6570 N.ar    1  UNL1       -0.1187
      5 S          10.3584   41.9877    8.0315 S.2     1  UNL1       -0.0102
      6 C          14.1842   42.7893    6.8475 C.2     1  UNL1        0.2271
      7 O          14.1540   42.6541    5.5955 O.2     1  UNL1       -0.2747
      8 N          13.0349   42.4821    7.6478 N.am    1  UNL1       -0.2627
      9 H          13.1122   42.6063    8.6213 H       1  UNL1        0.1568
     10 C          15.4384   43.2757    7.4942 C.3     1  UNL1        0.0769
     11 C          17.6774   42.4126    8.1990 C.3     1  UNL1        0.0005
     12 C          16.1973   42.0985    8.0936 C.3     1  UNL1        0.0091
     13 C          16.2909   44.0151    6.4709 C.3     1  UNL1        0.0091
     14 C          15.5848   45.2680    5.9895 C.3     1  UNL1        0.0005
     15 O           7.6487   39.5362    7.3098 O.2     1  UNL1       -0.1477
     16 O           7.3312   40.9032    5.3058 O.2     1  UNL1       -0.1477
     17 S           7.8351   40.9068    6.7220 S.O2    1  UNL1        0.1010
     18 C           6.8947   43.4383    7.1955 C.3     1  UNL1        0.1392
     19 N           6.9470   42.0624    7.6704 N.pl3   1  UNL1       -0.1870
     20 C           6.2971   41.6882    8.9021 C.ar    1  UNL1        0.0689
     21 C           6.9915   41.7485   10.1227 C.ar    1  UNL1        0.0161
     22 C           6.3654   41.3829   11.3177 C.ar    1  UNL1        0.0013
     23 C           5.0368   40.9526   11.3069 C.ar    1  UNL1        0.0001
     24 C           4.3343   40.8882   10.1017 C.ar    1  UNL1        0.0013
     25 C           4.9610   41.2541    8.9074 C.ar    1  UNL1        0.0161
@<TRIPOS>BOND
     1    11    12    1
     2    12    10    1
     3    10    13    1
     4    10     6    1
     5    13    14    1
     6     6     8   am
     7     1     5   ar
     8     2     5   ar
     9    18    19    1
    10    21    22   ar
    11    23    24   ar
    12    25    20   ar
    13     8     1    1
    14     3     4   ar
    15    19    20    1
    16    17     2    1
    17    17    19    1
    18     6     7    2
    19     1     3   ar
    20     2     4   ar
    21    20    21   ar
    22    22    23   ar
    23    24    25   ar
    24    17    15    2
    25    17    16    2
    26     8     9    1
@<TRIPOS>MOLECULE
MolPort-007-723-448 6818299 ChemDiv-E157-5478 MCULE-4631826537 PubChem-22518010 ZINC000006818299 ZINC06818299
 25 26 0 0 0
SMALL
GASTEIGER

@<TRIPOS>ATOM
      1 C          11.5220   39.4455    8.9282 C.ar    1  UNL1        0.1893
      2 C          13.4672   38.9911   10.2355 C.ar    1  UNL1        0.2593
      3 N          11.5971   40.2043   10.0442 N.ar    1  UNL1       -0.1239
      4 N          12.6818   39.9496   10.7731 N.ar    1  UNL1       -0.1187
      5 S          12.8315   38.3980    8.7929 S.2     1  UNL1       -0.0102
      6 C          10.3504   40.4999    6.9362 C.2     1  UNL1        0.2271
      7 O          11.2273   41.3937    6.7994 O.2     1  UNL1       -0.2747
      8 N          10.4581   39.5174    7.9748 N.am    1  UNL1       -0.2627
      9 H           9.7457   38.8407    8.0365 H       1  UNL1        0.1568
     10 C           9.1889   40.4743    5.9990 C.3     1  UNL1        0.0769
     11 C          10.3977   39.1987    4.2194 C.3     1  UNL1        0.0005
     12 C           9.2207   39.1926    5.1762 C.3     1  UNL1        0.0091
     13 C           7.8902   40.5892    6.7868 C.3     1  UNL1        0.0091
     14 C           6.8700   39.5837    6.2886 C.3     1  UNL1        0.0005
     15 O          15.0924   36.9429   10.7698 O.2     1  UNL1       -0.1477
     16 O          14.9035   38.7135   12.4476 O.2     1  UNL1       -0.1477
     17 S          14.9519   38.4254   10.9730 S.O2    1  UNL1        0.1010
     18 C          17.6441   38.7354   10.5571 C.3     1  UNL1        0.1392
     19 N          16.3106   39.2340   10.2494 N.pl3   1  UNL1       -0.1870
     20 C          16.1376   40.3773    9.3878 C.ar    1  UNL1        0.0689
     21 C          17.1754   41.3110    9.2235 C.ar    1  UNL1        0.0161
     22 C          17.0094   42.4221    8.3920 C.ar    1  UNL1        0.0013
     23 C          15.8034   42.6134    7.7142 C.ar    1  UNL1        0.0001
     24 C          14.7638   41.6936    7.8674 C.ar    1  UNL1        0.0013
     25 C          14.9306   40.5828    8.6988 C.ar    1  UNL1        0.0161
@<TRIPOS>BOND
     1    11    12    1
     2    12    10    1
     3    10    13    1
     4    10     6    1
     5    13    14    1
     6     6     8   am
     7     1     5   ar
     8     2     5   ar
     9    18    19    1
    10    21    22   ar
    11    23    24   ar
    12    25    20   ar
    13     8     1    1
    14     3     4   ar
    15    19    20    1
    16    17     2    1
    17    17    19    1
    18     6     7    2
    19     1     3   ar
    20     2     4   ar
    21    20    21   ar
    22    22    23   ar
    23    24    25   ar
    24    17    15    2
    25    17    16    2
    26     8     9    1
@<TRIPOS>MOLECULE
MolPort-007-723-448 6818299 ChemDiv-E157-5478 MCULE-4631826537 PubChem-22518010 ZINC000006818299 ZINC06818299
 25 26 0 0 0
SMALL
GASTEIGER

@<TRIPOS>ATOM
      1 C           6.4862   40.6010    7.0751 C.ar    1  UNL1        0.1893
      2 C           8.5224   39.9987    5.9841 C.ar    1  UNL1        0.2593
      3 N           6.3615   39.5069    6.2914 N.ar    1  UNL1       -0.1239
      4 N           7.4974   39.1722    5.6826 N.ar    1  UNL1       -0.1187
      5 S           8.0512   41.2176    7.0467 S.2     1  UNL1       -0.0102
      6 C           5.5459   41.6954    9.1657 C.2     1  UNL1        0.2271
      7 O           6.6552   41.6802    9.7622 O.2     1  UNL1       -0.2747
      8 N           5.4189   41.1727    7.8367 N.am    1  UNL1       -0.2627
      9 H           4.5294   41.2101    7.4163 H       1  UNL1        0.1568
     10 C           4.3560   42.2672    9.8622 C.3     1  UNL1        0.0769
     11 C           4.7800   44.2334    8.3759 C.3     1  UNL1        0.0005
     12 C           3.7181   43.3421    8.9913 C.3     1  UNL1        0.0091
     13 C           3.3630   41.1562   10.1792 C.3     1  UNL1        0.0091
     14 C           3.9399   40.1972   11.2027 C.3     1  UNL1        0.0005
     15 O          10.3270   40.7871    4.1830 O.2     1  UNL1       -0.1477
     16 O          10.3049   38.4230    4.8124 O.2     1  UNL1       -0.1477
     17 S          10.1354   39.8266    5.3230 S.O2    1  UNL1        0.1010
     18 C          12.0579   41.4096    6.4699 C.3     1  UNL1        0.1392
     19 N          11.3133   40.1609    6.5577 N.pl3   1  UNL1       -0.1870
     20 C          11.5704   39.2292    7.6279 C.ar    1  UNL1        0.0689
     21 C          12.8843   38.9916    8.0673 C.ar    1  UNL1        0.0161
     22 C          13.1372   38.0864    9.1018 C.ar    1  UNL1        0.0013
     23 C          12.0790   37.4075    9.7101 C.ar    1  UNL1        0.0001
     24 C          10.7684   37.6340    9.2843 C.ar    1  UNL1        0.0013
     25 C          10.5165   38.5394    8.2500 C.ar    1  UNL1        0.0161
@<TRIPOS>BOND
     1    11    12    1
     2    12    10    1
     3    10    13    1
     4    10     6    1
     5    13    14    1
     6     6     8   am
     7     1     5   ar
     8     2     5   ar
     9    18    19    1
    10    21    22   ar
    11    23    24   ar
    12    25    20   ar
    13     8     1    1
    14     3     4   ar
    15    19    20    1
    16    17     2    1
    17    17    19    1
    18     6     7    2
    19     1     3   ar
    20     2     4   ar
    21    20    21   ar
    22    22    23   ar
    23    24    25   ar
    24    17    15    2
    25    17    16    2
    26     8     9    1
@<TRIPOS>MOLECULE
MolPort-007-723-448 6818299 ChemDiv-E157-5478 MCULE-4631826537 PubChem-22518010 ZINC000006818299 ZINC06818299
 25 26 0 0 0
SMALL
GASTEIGER

@<TRIPOS>ATOM
      1 C           6.3602   40.4980    7.1835 C.ar    1  UNL1        0.1893
      2 C           8.4529   40.0347    6.1322 C.ar    1  UNL1        0.2593
      3 N           6.2694   39.5546    6.2198 N.ar    1  UNL1       -0.1239
      4 N           7.4369   39.2976    5.6335 N.ar    1  UNL1       -0.1187
      5 S           7.9330   41.0698    7.3552 S.2     1  UNL1       -0.0102
      6 C           5.3592   41.5522    9.2666 C.2     1  UNL1        0.2271
      7 O           6.4811   41.7040    9.8188 O.2     1  UNL1       -0.2747
      8 N           5.2549   40.9611    7.9645 N.am    1  UNL1       -0.2627
      9 H           4.3541   40.8669    7.5786 H       1  UNL1        0.1568
     10 C           4.1303   41.9970    9.9875 C.3     1  UNL1        0.0769
     11 C           4.2249   44.1139    8.6590 C.3     1  UNL1        0.0005
     12 C           3.3440   42.9658    9.1132 C.3     1  UNL1        0.0091
     13 C           3.2863   40.7850   10.3607 C.3     1  UNL1        0.0091
     14 C           3.9014   40.0433   11.5319 C.3     1  UNL1        0.0005
     15 O          10.4158   41.1263    4.6909 O.2     1  UNL1       -0.1477
     16 O          10.2531   38.6854    4.7281 O.2     1  UNL1       -0.1477
     17 S          10.1023   39.9343    5.5510 S.O2    1  UNL1        0.1010
     18 C          10.9268   38.9511    7.9739 C.3     1  UNL1        0.1392
     19 N          11.1979   39.8979    6.9008 N.pl3   1  UNL1       -0.1870
     20 C          12.3303   40.7873    6.9783 C.ar    1  UNL1        0.0689
     21 C          13.3666   40.5453    7.8965 C.ar    1  UNL1        0.0161
     22 C          14.4637   41.4076    7.9767 C.ar    1  UNL1        0.0013
     23 C          14.5383   42.5228    7.1391 C.ar    1  UNL1        0.0001
     24 C          13.5163   42.7754    6.2215 C.ar    1  UNL1        0.0013
     25 C          12.4198   41.9126    6.1420 C.ar    1  UNL1        0.0161
@<TRIPOS>BOND
     1    11    12    1
     2    12    10    1
     3    10    13    1
     4    10     6    1
     5    13    14    1
     6     6     8   am
     7     1     5   ar
     8     2     5   ar
     9    18    19    1
    10    21    22   ar
    11    23    24   ar
    12    25    20   ar
    13     8     1    1
    14     3     4   ar
    15    19    20    1
    16    17     2    1
    17    17    19    1
    18     6     7    2
    19     1     3   ar
    20     2     4   ar
    21    20    21   ar
    22    22    23   ar
    23    24    25   ar
    24    17    15    2
    25    17    16    2
    26     8     9    1
