@<TRIPOS>MOLECULE
MolPort-006-579-789 ChemDiv-V020-6693 MCULE-2293517034 PubChem-46040753 ZINC000037544505 ZINC37544505
 32 34 0 0 0
SMALL
GASTEIGER

@<TRIPOS>ATOM
      1 C          11.3869   37.2808    9.5590 C.3     1  UNL1        0.1015
      2 C          12.5251   36.3097    9.8249 C.3     1  UNL1        0.0435
      3 C          13.3124   36.7539   11.0545 C.3     1  UNL1        0.0971
      4 C          13.0032   39.0857   10.1054 C.2     1  UNL1        0.3112
      5 O          13.3674   40.2926   10.0568 O.2     1  UNL1       -0.2520
      6 N          11.9251   38.6095    9.2728 N.am    1  UNL1       -0.2430
      7 N          13.6578   38.1763   11.0112 N.am    1  UNL1       -0.2596
      8 C          11.5086   41.0387    6.4249 C.ar    1  UNL1        0.0516
      9 C          12.0894   40.2815    7.4468 C.ar    1  UNL1        0.0296
     10 C          11.3190   39.4077    8.2320 C.ar    1  UNL1        0.0565
     11 C           9.9451   39.2954    7.9616 C.ar    1  UNL1        0.0150
     12 C           9.3554   40.0475    6.9433 C.ar    1  UNL1        0.0026
     13 C          10.1344   40.9173    6.1784 C.ar    1  UNL1        0.0148
     14 C          13.3468   42.8073    6.1675 C.2     1  UNL1        0.2563
     15 O          13.5731   42.9012    7.4028 O.2     1  UNL1       -0.2720
     16 N          12.3437   41.9179    5.6597 N.am    1  UNL1       -0.2818
     17 H          12.2147   41.9099    4.6838 H       1  UNL1        0.1549
     18 C          14.1295   43.6438    5.2182 C.3     1  UNL1        0.2273
     19 C          15.4464   45.2765    5.9018 C.3     1  UNL1        0.1748
     20 O          14.1117   44.9740    5.6374 O.3     1  UNL1       -0.3417
     21 C          14.6781   38.6489   11.9396 C.3     1  UNL1        0.1218
     22 C          16.0270   38.6143   11.3018 C.ar    1  UNL1        0.0007
     23 C          16.4398   39.6661   10.4766 C.ar    1  UNL1        0.0346
     24 C          17.6966   39.6345    9.8631 C.ar    1  UNL1        0.1465
     25 C          18.5412   38.5336   10.0819 C.ar    1  UNL1        0.0372
     26 C          18.1299   37.4815   10.9047 C.ar    1  UNL1        0.0028
     27 C          16.8731   37.5217   11.5135 C.ar    1  UNL1       -0.0024
     28 O          18.0751   40.7072    9.0459 O.3     1  UNL1       -0.4045
     29 C          17.2138   41.7878    8.6941 C.3     1  UNL1        0.5753
     30 F          15.8993   41.3581    8.6642 F       1  UNL1       -0.1328
     31 F          17.5630   42.2527    7.4410 F       1  UNL1       -0.1328
     32 F          17.3471   42.8175    9.6083 F       1  UNL1       -0.1328
@<TRIPOS>BOND
     1    19    20    1
     2    18    20    1
     3    18    14    1
     4    14    16   am
     5     9    10   ar
     6    10     6    1
     7    11    12   ar
     8    13     8   ar
     9     1     6    1
    10     1     2    1
    11     2     3    1
    12     3     7    1
    13    21     7    1
    14    21    22    1
    15    23    24   ar
    16    24    28    1
    17    29    28    1
    18    29    30    1
    19    29    31    1
    20    29    32    1
    21    25    26   ar
    22    27    22   ar
    23     4     6   am
    24    16     8    1
    25     7     4   am
    26    14    15    2
    27     8     9   ar
    28    10    11   ar
    29    12    13   ar
    30    22    23   ar
    31    24    25   ar
    32    26    27   ar
    33     4     5    2
    34    16    17    1
@<TRIPOS>MOLECULE
MolPort-006-579-789 ChemDiv-V020-6693 MCULE-2293517034 PubChem-46040753 ZINC000037544505 ZINC37544505
 32 34 0 0 0
SMALL
GASTEIGER

@<TRIPOS>ATOM
      1 C           9.3662   42.8082   10.4502 C.3     1  UNL1        0.1015
      2 C          10.0506   41.6216   11.1081 C.3     1  UNL1        0.0435
      3 C          11.2061   41.1376   10.2364 C.3     1  UNL1        0.0971
      4 C           9.6106   41.5682    8.3122 C.2     1  UNL1        0.3112
      5 O           9.2795   41.3613    7.1125 O.2     1  UNL1       -0.2520
      6 N           8.8000   42.4041    9.1644 N.am    1  UNL1       -0.2430
      7 N          10.8172   40.9781    8.8337 N.am    1  UNL1       -0.2596
      8 C           5.0904   43.0535    9.1197 C.ar    1  UNL1        0.0516
      9 C           6.3435   42.5502    9.4822 C.ar    1  UNL1        0.0296
     10 C           7.5031   42.9077    8.7743 C.ar    1  UNL1        0.0565
     11 C           7.3838   43.7989    7.6950 C.ar    1  UNL1        0.0150
     12 C           6.1368   44.3069    7.3249 C.ar    1  UNL1        0.0026
     13 C           4.9936   43.9343    8.0341 C.ar    1  UNL1        0.0148
     14 C           3.9377   42.0436   11.1751 C.2     1  UNL1        0.2563
     15 O           5.0119   41.7903   11.7816 O.2     1  UNL1       -0.2720
     16 N           3.9411   42.6492    9.8757 N.am    1  UNL1       -0.2818
     17 H           3.0627   42.8036    9.4589 H       1  UNL1        0.1549
     18 C           2.6405   41.6978   11.8163 C.3     1  UNL1        0.2273
     19 C           0.9397   42.4502   13.0032 C.3     1  UNL1        0.1748
     20 O           1.9445   42.8649   12.1306 O.3     1  UNL1       -0.3417
     21 C          11.7117   40.2155    7.9707 C.3     1  UNL1        0.1218
     22 C          13.0839   40.8026    7.9846 C.ar    1  UNL1        0.0007
     23 C          13.3922   41.8846    7.1529 C.ar    1  UNL1        0.0346
     24 C          14.6799   42.4312    7.1490 C.ar    1  UNL1        0.1465
     25 C          15.6631   41.8810    7.9880 C.ar    1  UNL1        0.0372
     26 C          15.3571   40.7993    8.8184 C.ar    1  UNL1        0.0028
     27 C          14.0684   40.2601    8.8159 C.ar    1  UNL1       -0.0024
     28 O          14.9496   43.5154    6.3043 O.3     1  UNL1       -0.4045
     29 C          16.0814   44.3722    6.4389 C.3     1  UNL1        0.5753
     30 F          16.4195   44.5078    7.7734 F       1  UNL1       -0.1328
     31 F          15.7683   45.6162    5.9263 F       1  UNL1       -0.1328
     32 F          17.1547   43.8542    5.7364 F       1  UNL1       -0.1328
@<TRIPOS>BOND
     1    19    20    1
     2    18    20    1
     3    18    14    1
     4    14    16   am
     5     9    10   ar
     6    10     6    1
     7    11    12   ar
     8    13     8   ar
     9     1     6    1
    10     1     2    1
    11     2     3    1
    12     3     7    1
    13    21     7    1
    14    21    22    1
    15    23    24   ar
    16    24    28    1
    17    29    28    1
    18    29    30    1
    19    29    31    1
    20    29    32    1
    21    25    26   ar
    22    27    22   ar
    23     4     6   am
    24    16     8    1
    25     7     4   am
    26    14    15    2
    27     8     9   ar
    28    10    11   ar
    29    12    13   ar
    30    22    23   ar
    31    24    25   ar
    32    26    27   ar
    33     4     5    2
    34    16    17    1
@<TRIPOS>MOLECULE
MolPort-006-579-789 ChemDiv-V020-6693 MCULE-2293517034 PubChem-46040753 ZINC000037544505 ZINC37544505
 32 34 0 0 0
SMALL
GASTEIGER

@<TRIPOS>ATOM
      1 C          10.5479   40.3233   10.8244 C.3     1  UNL1        0.1015
      2 C           9.7087   41.0086   11.8900 C.3     1  UNL1        0.0435
      3 C           8.7810   42.0334   11.2432 C.3     1  UNL1        0.0971
      4 C          10.7891   42.5679    9.7888 C.2     1  UNL1        0.3112
      5 O          11.3879   43.3704    9.0214 O.2     1  UNL1       -0.2520
      6 N          11.3921   41.3073   10.1489 N.am    1  UNL1       -0.2430
      7 N           9.4842   42.9041   10.2990 N.am    1  UNL1       -0.2596
      8 C          14.7714   41.3191    8.4863 C.ar    1  UNL1        0.0516
      9 C          13.4477   41.6418    8.8002 C.ar    1  UNL1        0.0296
     10 C          12.7526   40.9573    9.8110 C.ar    1  UNL1        0.0565
     11 C          13.4203   39.9433   10.5177 C.ar    1  UNL1        0.0150
     12 C          14.7423   39.6134   10.2117 C.ar    1  UNL1        0.0026
     13 C          15.4152   40.2981    9.1983 C.ar    1  UNL1        0.0148
     14 C          16.5173   42.9690    7.5901 C.2     1  UNL1        0.2563
     15 O          16.9980   43.2357    8.7232 O.2     1  UNL1       -0.2720
     16 N          15.4286   42.0483    7.4411 N.am    1  UNL1       -0.2818
     17 H          15.0976   41.9013    6.5257 H       1  UNL1        0.1549
     18 C          17.0845   43.6306    6.3843 C.3     1  UNL1        0.2273
     19 C          15.3312   44.2300    5.1868 C.3     1  UNL1        0.1748
     20 O          16.3064   44.7370    6.0442 O.3     1  UNL1       -0.3417
     21 C           8.8035   44.1207    9.8714 C.3     1  UNL1        0.1218
     22 C           7.8695   43.8327    8.7434 C.ar    1  UNL1        0.0007
     23 C           8.1497   42.7941    7.8487 C.ar    1  UNL1        0.0346
     24 C           7.2872   42.5271    6.7802 C.ar    1  UNL1        0.1465
     25 C           6.1360   43.3144    6.6122 C.ar    1  UNL1        0.0372
     26 C           5.8554   44.3530    7.5043 C.ar    1  UNL1        0.0028
     27 C           6.7223   44.6123    8.5687 C.ar    1  UNL1       -0.0024
     28 O           7.6002   41.4777    5.9070 O.3     1  UNL1       -0.4045
     29 C           7.3420   40.1028    6.1834 C.3     1  UNL1        0.5753
     30 F           7.9758   39.3026    5.2498 F       1  UNL1       -0.1328
     31 F           5.9806   39.8780    6.1174 F       1  UNL1       -0.1328
     32 F           7.7890   39.7821    7.4526 F       1  UNL1       -0.1328
@<TRIPOS>BOND
     1    19    20    1
     2    18    20    1
     3    18    14    1
     4    14    16   am
     5     9    10   ar
     6    10     6    1
     7    11    12   ar
     8    13     8   ar
     9     1     6    1
    10     1     2    1
    11     2     3    1
    12     3     7    1
    13    21     7    1
    14    21    22    1
    15    23    24   ar
    16    24    28    1
    17    29    28    1
    18    29    30    1
    19    29    31    1
    20    29    32    1
    21    25    26   ar
    22    27    22   ar
    23     4     6   am
    24    16     8    1
    25     7     4   am
    26    14    15    2
    27     8     9   ar
    28    10    11   ar
    29    12    13   ar
    30    22    23   ar
    31    24    25   ar
    32    26    27   ar
    33     4     5    2
    34    16    17    1
@<TRIPOS>MOLECULE
MolPort-006-579-789 ChemDiv-V020-6693 MCULE-2293517034 PubChem-46040753 ZINC000037544505 ZINC37544505
 32 34 0 0 0
SMALL
GASTEIGER

@<TRIPOS>ATOM
      1 C          10.1912   39.5908    8.2988 C.3     1  UNL1        0.1015
      2 C          11.1750   39.8755    7.1761 C.3     1  UNL1        0.0435
      3 C          12.5423   39.2917    7.5212 C.3     1  UNL1        0.0971
      4 C          12.0439   40.1468    9.8566 C.2     1  UNL1        0.3112
      5 O          12.4616   40.4912   10.9961 O.2     1  UNL1       -0.2520
      6 N          10.6415   40.2390    9.5293 N.am    1  UNL1       -0.2430
      7 N          12.9717   39.6417    8.8767 N.am    1  UNL1       -0.2596
      8 C           7.5938   42.1238   10.6882 C.ar    1  UNL1        0.0516
      9 C           8.5468   41.5279    9.8566 C.ar    1  UNL1        0.0296
     10 C           9.6696   40.8735   10.3898 C.ar    1  UNL1        0.0565
     11 C           9.8132   40.8146   11.7860 C.ar    1  UNL1        0.0150
     12 C           8.8671   41.4068   12.6252 C.ar    1  UNL1        0.0026
     13 C           7.7617   42.0605   12.0781 C.ar    1  UNL1        0.0148
     14 C           5.2065   42.1936    9.7557 C.2     1  UNL1        0.2563
     15 O           4.9783   40.9730    9.9656 O.2     1  UNL1       -0.2720
     16 N           6.4709   42.7824   10.0872 N.am    1  UNL1       -0.2818
     17 H           6.5795   43.7389    9.8806 H       1  UNL1        0.1549
     18 C           4.1461   43.0377    9.1421 C.3     1  UNL1        0.2273
     19 C           4.5773   44.6151    7.6611 C.3     1  UNL1        0.1748
     20 O           4.5970   44.3528    9.0300 O.3     1  UNL1       -0.3417
     21 C          14.3764   39.4378    9.2106 C.3     1  UNL1        0.1218
     22 C          15.1891   40.6261    8.8167 C.ar    1  UNL1        0.0007
     23 C          14.6577   41.5806    7.9425 C.ar    1  UNL1        0.0346
     24 C          15.4181   42.6896    7.5566 C.ar    1  UNL1        0.1465
     25 C          16.7236   42.8351    8.0543 C.ar    1  UNL1        0.0372
     26 C          17.2564   41.8819    8.9265 C.ar    1  UNL1        0.0028
     27 C          16.4896   40.7777    9.3067 C.ar    1  UNL1       -0.0024
     28 O          14.8508   43.6247    6.6818 O.3     1  UNL1       -0.4045
     29 C          15.5502   44.2343    5.5989 C.3     1  UNL1        0.5753
     30 F          14.8627   44.0339    4.4155 F       1  UNL1       -0.1328
     31 F          16.8031   43.6622    5.4929 F       1  UNL1       -0.1328
     32 F          15.6939   45.5905    5.8307 F       1  UNL1       -0.1328
@<TRIPOS>BOND
     1    19    20    1
     2    18    20    1
     3    18    14    1
     4    14    16   am
     5     9    10   ar
     6    10     6    1
     7    11    12   ar
     8    13     8   ar
     9     1     6    1
    10     1     2    1
    11     2     3    1
    12     3     7    1
    13    21     7    1
    14    21    22    1
    15    23    24   ar
    16    24    28    1
    17    29    28    1
    18    29    30    1
    19    29    31    1
    20    29    32    1
    21    25    26   ar
    22    27    22   ar
    23     4     6   am
    24    16     8    1
    25     7     4   am
    26    14    15    2
    27     8     9   ar
    28    10    11   ar
    29    12    13   ar
    30    22    23   ar
    31    24    25   ar
    32    26    27   ar
    33     4     5    2
    34    16    17    1
@<TRIPOS>MOLECULE
MolPort-006-579-789 ChemDiv-V020-6693 MCULE-2293517034 PubChem-46040753 ZINC000037544505 ZINC37544505
 32 34 0 0 0
SMALL
GASTEIGER

@<TRIPOS>ATOM
      1 C          10.0994   41.2328    9.8396 C.3     1  UNL1        0.1015
      2 C          11.2243   40.5479   10.5977 C.3     1  UNL1        0.0435
      3 C          12.5624   40.8486    9.9281 C.3     1  UNL1        0.0971
      4 C          11.2731   40.5280    7.7673 C.2     1  UNL1        0.3112
      5 O          11.2774   40.2888    6.5286 O.2     1  UNL1       -0.2520
      6 N          10.0295   40.7097    8.4763 N.am    1  UNL1       -0.2430
      7 N          12.5209   40.6368    8.4797 N.am    1  UNL1       -0.2596
      8 C           6.3309   40.8735    7.7850 C.ar    1  UNL1        0.0516
      9 C           7.5796   41.0896    8.3757 C.ar    1  UNL1        0.0296
     10 C           8.7367   40.4675    7.8783 C.ar    1  UNL1        0.0565
     11 C           8.6197   39.6278    6.7581 C.ar    1  UNL1        0.0150
     12 C           7.3771   39.4052    6.1611 C.ar    1  UNL1        0.0026
     13 C           6.2361   40.0249    6.6737 C.ar    1  UNL1        0.0148
     14 C           5.1313   42.8606    8.8739 C.2     1  UNL1        0.2563
     15 O           6.1568   43.5904    8.9143 O.2     1  UNL1       -0.2720
     16 N           5.1838   41.5314    8.3393 N.am    1  UNL1       -0.2818
     17 H           4.3448   41.0166    8.3544 H       1  UNL1        0.1549
     18 C           3.8427   43.3854    9.4009 C.3     1  UNL1        0.2273
     19 C           4.3698   44.7065    7.7144 C.3     1  UNL1        0.1748
     20 O           3.2898   44.2815    8.4863 O.3     1  UNL1       -0.3417
     21 C          13.7949   40.5627    7.7743 C.3     1  UNL1        0.1218
     22 C          14.1376   41.8821    7.1664 C.ar    1  UNL1        0.0007
     23 C          15.3232   42.5328    7.5252 C.ar    1  UNL1        0.0346
     24 C          15.6447   43.7764    6.9712 C.ar    1  UNL1        0.1465
     25 C          14.7633   44.3682    6.0514 C.ar    1  UNL1        0.0372
     26 C          13.5780   43.7203    5.6930 C.ar    1  UNL1        0.0028
     27 C          13.2652   42.4783    6.2510 C.ar    1  UNL1       -0.0024
     28 O          16.8416   44.3956    7.3533 O.3     1  UNL1       -0.4045
     29 C          17.9425   43.7109    7.9470 C.3     1  UNL1        0.5753
     30 F          18.2082   42.5447    7.2521 F       1  UNL1       -0.1328
     31 F          17.6239   43.3929    9.2530 F       1  UNL1       -0.1328
     32 F          19.0633   44.5218    7.9428 F       1  UNL1       -0.1328
@<TRIPOS>BOND
     1    19    20    1
     2    18    20    1
     3    18    14    1
     4    14    16   am
     5     9    10   ar
     6    10     6    1
     7    11    12   ar
     8    13     8   ar
     9     1     6    1
    10     1     2    1
    11     2     3    1
    12     3     7    1
    13    21     7    1
    14    21    22    1
    15    23    24   ar
    16    24    28    1
    17    29    28    1
    18    29    30    1
    19    29    31    1
    20    29    32    1
    21    25    26   ar
    22    27    22   ar
    23     4     6   am
    24    16     8    1
    25     7     4   am
    26    14    15    2
    27     8     9   ar
    28    10    11   ar
    29    12    13   ar
    30    22    23   ar
    31    24    25   ar
    32    26    27   ar
    33     4     5    2
    34    16    17    1
@<TRIPOS>MOLECULE
MolPort-006-579-789 ChemDiv-V020-6693 MCULE-2293517034 PubChem-46040753 ZINC000037544505 ZINC37544505
 32 34 0 0 0
SMALL
GASTEIGER

@<TRIPOS>ATOM
      1 C          10.1551   41.3296    9.9871 C.3     1  UNL1        0.1015
      2 C          10.9428   40.6663   11.1046 C.3     1  UNL1        0.0435
      3 C          12.3869   40.4446   10.6635 C.3     1  UNL1        0.0971
      4 C          11.3492   39.7946    8.4422 C.2     1  UNL1        0.3112
      5 O          11.4478   39.2031    7.3322 O.2     1  UNL1       -0.2520
      6 N          10.1216   40.4544    8.8166 N.am    1  UNL1       -0.2430
      7 N          12.4764   39.8264    9.3390 N.am    1  UNL1       -0.2596
      8 C           6.6601   41.1429    7.5020 C.ar    1  UNL1        0.0516
      9 C           7.8346   41.2356    8.2550 C.ar    1  UNL1        0.0296
     10 C           8.9002   40.3429    8.0529 C.ar    1  UNL1        0.0565
     11 C           8.7710   39.3551    7.0623 C.ar    1  UNL1        0.0150
     12 C           7.6020   39.2541    6.3050 C.ar    1  UNL1        0.0026
     13 C           6.5494   40.1442    6.5251 C.ar    1  UNL1        0.0148
     14 C           5.1446   42.5278    9.0378 C.2     1  UNL1        0.2563
     15 O           5.6559   42.0953   10.1043 O.2     1  UNL1       -0.2720
     16 N           5.6036   42.0784    7.7562 N.am    1  UNL1       -0.2818
     17 H           5.1457   42.4510    6.9683 H       1  UNL1        0.1549
     18 C           4.0355   43.5168    9.1108 C.3     1  UNL1        0.2273
     19 C           3.1599   41.5014    9.3075 C.3     1  UNL1        0.1748
     20 O           2.8279   42.8549    9.3321 O.3     1  UNL1       -0.3417
     21 C          13.7618   39.2608    8.9467 C.3     1  UNL1        0.1218
     22 C          14.7806   40.3379    8.7748 C.ar    1  UNL1        0.0007
     23 C          14.4979   41.4491    7.9730 C.ar    1  UNL1        0.0346
     24 C          15.4527   42.4559    7.7948 C.ar    1  UNL1        0.1465
     25 C          16.7013   42.3395    8.4278 C.ar    1  UNL1        0.0372
     26 C          16.9858   41.2295    9.2279 C.ar    1  UNL1        0.0028
     27 C          16.0261   40.2290    9.4005 C.ar    1  UNL1       -0.0024
     28 O          15.1319   43.5540    6.9866 O.3     1  UNL1       -0.4045
     29 C          16.0968   44.4254    6.4010 C.3     1  UNL1        0.5753
     30 F          15.4735   45.5474    5.8852 F       1  UNL1       -0.1328
     31 F          16.7426   43.7597    5.3773 F       1  UNL1       -0.1328
     32 F          17.0302   44.8049    7.3489 F       1  UNL1       -0.1328
@<TRIPOS>BOND
     1    19    20    1
     2    18    20    1
     3    18    14    1
     4    14    16   am
     5     9    10   ar
     6    10     6    1
     7    11    12   ar
     8    13     8   ar
     9     1     6    1
    10     1     2    1
    11     2     3    1
    12     3     7    1
    13    21     7    1
    14    21    22    1
    15    23    24   ar
    16    24    28    1
    17    29    28    1
    18    29    30    1
    19    29    31    1
    20    29    32    1
    21    25    26   ar
    22    27    22   ar
    23     4     6   am
    24    16     8    1
    25     7     4   am
    26    14    15    2
    27     8     9   ar
    28    10    11   ar
    29    12    13   ar
    30    22    23   ar
    31    24    25   ar
    32    26    27   ar
    33     4     5    2
    34    16    17    1
@<TRIPOS>MOLECULE
MolPort-006-579-789 ChemDiv-V020-6693 MCULE-2293517034 PubChem-46040753 ZINC000037544505 ZINC37544505
 32 34 0 0 0
SMALL
GASTEIGER

@<TRIPOS>ATOM
      1 C           8.2679   39.9096    6.6223 C.3     1  UNL1        0.1015
      2 C           9.4735   39.6211    5.7432 C.3     1  UNL1        0.0435
      3 C          10.6894   39.3113    6.6120 C.3     1  UNL1        0.0971
      4 C           9.8227   41.1995    8.0671 C.2     1  UNL1        0.3112
      5 O          10.0387   42.0704    8.9538 O.2     1  UNL1       -0.2520
      6 N           8.5252   41.0902    7.4452 N.am    1  UNL1       -0.2430
      7 N          10.8752   40.2942    7.6814 N.am    1  UNL1       -0.2596
      8 C           5.5969   42.8880    8.9871 C.ar    1  UNL1        0.0516
      9 C           6.6103   41.9499    8.7684 C.ar    1  UNL1        0.0296
     10 C           7.4644   42.0479    7.6573 C.ar    1  UNL1        0.0565
     11 C           7.2911   43.1224    6.7691 C.ar    1  UNL1        0.0150
     12 C           6.2818   44.0645    6.9786 C.ar    1  UNL1        0.0026
     13 C           5.4365   43.9469    8.0833 C.ar    1  UNL1        0.0148
     14 C           3.4246   42.1931   10.1584 C.2     1  UNL1        0.2563
     15 O           2.8588   41.8032    9.1030 O.2     1  UNL1       -0.2720
     16 N           4.7522   42.7338   10.1354 N.am    1  UNL1       -0.2818
     17 H           5.1224   43.0303   10.9981 H       1  UNL1        0.1549
     18 C           2.6964   42.0995   11.4523 C.3     1  UNL1        0.2273
     19 C           3.7836   40.1815   11.5319 C.3     1  UNL1        0.1748
     20 O           3.3895   41.2591   12.3233 O.3     1  UNL1       -0.3417
     21 C          12.1638   40.3097    8.3638 C.3     1  UNL1        0.1218
     22 C          13.1034   41.2558    7.6932 C.ar    1  UNL1        0.0007
     23 C          14.4133   41.3955    8.1647 C.ar    1  UNL1        0.0346
     24 C          15.2957   42.2909    7.5511 C.ar    1  UNL1        0.1465
     25 C          14.8529   43.0517    6.4564 C.ar    1  UNL1        0.0372
     26 C          13.5444   42.9144    5.9851 C.ar    1  UNL1        0.0028
     27 C          12.6701   42.0175    6.6038 C.ar    1  UNL1       -0.0024
     28 O          16.5998   42.4011    8.0502 O.3     1  UNL1       -0.4045
     29 C          17.2931   43.6367    8.2111 C.3     1  UNL1        0.5753
     30 F          17.4301   43.9338    9.5552 F       1  UNL1       -0.1328
     31 F          16.5692   44.6423    7.6003 F       1  UNL1       -0.1328
     32 F          18.5419   43.5601    7.6209 F       1  UNL1       -0.1328
@<TRIPOS>BOND
     1    19    20    1
     2    18    20    1
     3    18    14    1
     4    14    16   am
     5     9    10   ar
     6    10     6    1
     7    11    12   ar
     8    13     8   ar
     9     1     6    1
    10     1     2    1
    11     2     3    1
    12     3     7    1
    13    21     7    1
    14    21    22    1
    15    23    24   ar
    16    24    28    1
    17    29    28    1
    18    29    30    1
    19    29    31    1
    20    29    32    1
    21    25    26   ar
    22    27    22   ar
    23     4     6   am
    24    16     8    1
    25     7     4   am
    26    14    15    2
    27     8     9   ar
    28    10    11   ar
    29    12    13   ar
    30    22    23   ar
    31    24    25   ar
    32    26    27   ar
    33     4     5    2
    34    16    17    1
@<TRIPOS>MOLECULE
MolPort-006-579-789 ChemDiv-V020-6693 MCULE-2293517034 PubChem-46040753 ZINC000037544505 ZINC37544505
 32 34 0 0 0
SMALL
GASTEIGER

@<TRIPOS>ATOM
      1 C          10.4934   42.7804   10.4878 C.3     1  UNL1        0.1015
      2 C           9.5033   43.8726   10.1190 C.3     1  UNL1        0.0435
      3 C           8.2014   43.2497    9.6227 C.3     1  UNL1        0.0971
      4 C           9.7273   41.6062    8.4376 C.2     1  UNL1        0.3112
      5 O           9.8980   40.7486    7.5283 O.2     1  UNL1       -0.2520
      6 N          10.8167   41.9839    9.3053 N.am    1  UNL1       -0.2430
      7 N           8.4294   42.2037    8.6235 N.am    1  UNL1       -0.2596
      8 C          14.3208   41.7721    7.9411 C.ar    1  UNL1        0.0516
      9 C          12.9947   42.1722    8.1316 C.ar    1  UNL1        0.0296
     10 C          12.1799   41.5539    9.0946 C.ar    1  UNL1        0.0565
     11 C          12.7289   40.5270    9.8804 C.ar    1  UNL1        0.0150
     12 C          14.0523   40.1200    9.6977 C.ar    1  UNL1        0.0026
     13 C          14.8452   40.7395    8.7302 C.ar    1  UNL1        0.0148
     14 C          16.2110   43.3186    7.1608 C.2     1  UNL1        0.2563
     15 O          16.5942   43.6082    8.3249 O.2     1  UNL1       -0.2720
     16 N          15.1031   42.4360    6.9396 N.am    1  UNL1       -0.2818
     17 H          14.8535   42.2682    6.0021 H       1  UNL1        0.1549
     18 C          16.9161   43.9126    5.9931 C.3     1  UNL1        0.2273
     19 C          15.1800   45.2366    5.6765 C.3     1  UNL1        0.1748
     20 O          16.5614   45.2550    5.8617 O.3     1  UNL1       -0.3417
     21 C           7.2841   41.7677    7.8334 C.3     1  UNL1        0.1218
     22 C           6.1249   42.6859    8.0354 C.ar    1  UNL1        0.0007
     23 C           5.0386   42.2821    8.8194 C.ar    1  UNL1        0.0346
     24 C           3.9416   43.1308    9.0016 C.ar    1  UNL1        0.1465
     25 C           3.9397   44.3939    8.3870 C.ar    1  UNL1        0.0372
     26 C           5.0233   44.7983    7.6024 C.ar    1  UNL1        0.0028
     27 C           6.1148   43.9442    7.4262 C.ar    1  UNL1       -0.0024
     28 O           2.8742   42.6920    9.7952 O.3     1  UNL1       -0.4045
     29 C           3.0271   42.0730   11.0707 C.3     1  UNL1        0.5753
     30 F           4.1780   42.5307   11.6867 F       1  UNL1       -0.1328
     31 F           3.1228   40.7056   10.8993 F       1  UNL1       -0.1328
     32 F           1.9304   42.3501   11.8669 F       1  UNL1       -0.1328
@<TRIPOS>BOND
     1    19    20    1
     2    18    20    1
     3    18    14    1
     4    14    16   am
     5     9    10   ar
     6    10     6    1
     7    11    12   ar
     8    13     8   ar
     9     1     6    1
    10     1     2    1
    11     2     3    1
    12     3     7    1
    13    21     7    1
    14    21    22    1
    15    23    24   ar
    16    24    28    1
    17    29    28    1
    18    29    30    1
    19    29    31    1
    20    29    32    1
    21    25    26   ar
    22    27    22   ar
    23     4     6   am
    24    16     8    1
    25     7     4   am
    26    14    15    2
    27     8     9   ar
    28    10    11   ar
    29    12    13   ar
    30    22    23   ar
    31    24    25   ar
    32    26    27   ar
    33     4     5    2
    34    16    17    1
@<TRIPOS>MOLECULE
MolPort-006-579-789 ChemDiv-V020-6693 MCULE-2293517034 PubChem-46040753 ZINC000037544505 ZINC37544505
 32 34 0 0 0
SMALL
GASTEIGER

@<TRIPOS>ATOM
      1 C           8.6412   40.3524    6.0794 C.3     1  UNL1        0.1015
      2 C          10.0245   40.2554    5.4578 C.3     1  UNL1        0.0435
      3 C          10.9963   39.6170    6.4464 C.3     1  UNL1        0.0971
      4 C           9.7958   41.0419    8.1675 C.2     1  UNL1        0.3112
      5 O           9.7877   41.5920    9.3028 O.2     1  UNL1       -0.2520
      6 N           8.6872   41.2135    7.2600 N.am    1  UNL1       -0.2430
      7 N          10.9143   40.2214    7.7777 N.am    1  UNL1       -0.2596
      8 C           5.7817   42.9479    8.9136 C.ar    1  UNL1        0.0516
      9 C           6.8181   42.0428    8.6654 C.ar    1  UNL1        0.0296
     10 C           7.6024   42.1362    7.5037 C.ar    1  UNL1        0.0565
     11 C           7.3351   43.1725    6.5937 C.ar    1  UNL1        0.0150
     12 C           6.3021   44.0815    6.8324 C.ar    1  UNL1        0.0026
     13 C           5.5270   43.9687    7.9879 C.ar    1  UNL1        0.0148
     14 C           3.6586   42.3354   10.2138 C.2     1  UNL1        0.2563
     15 O           2.9986   42.0175    9.1895 O.2     1  UNL1       -0.2720
     16 N           5.0111   42.8001   10.1137 N.am    1  UNL1       -0.2818
     17 H           5.4574   43.0431   10.9569 H       1  UNL1        0.1549
     18 C           3.0177   42.2360   11.5529 C.3     1  UNL1        0.2273
     19 C           4.3201   40.4553   11.5667 C.3     1  UNL1        0.1748
     20 O           3.0828   40.9199   12.0097 O.3     1  UNL1       -0.3417
     21 C          12.0001   39.9431    8.7103 C.3     1  UNL1        0.1218
     22 C          13.2008   40.7664    8.3813 C.ar    1  UNL1        0.0007
     23 C          13.0877   41.8538    7.5081 C.ar    1  UNL1        0.0346
     24 C          14.2110   42.6215    7.1830 C.ar    1  UNL1        0.1465
     25 C          15.4565   42.2885    7.7406 C.ar    1  UNL1        0.0372
     26 C          15.5714   41.2018    8.6119 C.ar    1  UNL1        0.0028
     27 C          14.4442   40.4409    8.9313 C.ar    1  UNL1       -0.0024
     28 O          14.0575   43.7037    6.3071 O.3     1  UNL1       -0.4045
     29 C          15.0904   44.1978    5.4572 C.3     1  UNL1        0.5753
     30 F          16.3254   43.7729    5.9129 F       1  UNL1       -0.1328
     31 F          15.0591   45.5788    5.4661 F       1  UNL1       -0.1328
     32 F          14.8927   43.7525    4.1624 F       1  UNL1       -0.1328
@<TRIPOS>BOND
     1    19    20    1
     2    18    20    1
     3    18    14    1
     4    14    16   am
     5     9    10   ar
     6    10     6    1
     7    11    12   ar
     8    13     8   ar
     9     1     6    1
    10     1     2    1
    11     2     3    1
    12     3     7    1
    13    21     7    1
    14    21    22    1
    15    23    24   ar
    16    24    28    1
    17    29    28    1
    18    29    30    1
    19    29    31    1
    20    29    32    1
    21    25    26   ar
    22    27    22   ar
    23     4     6   am
    24    16     8    1
    25     7     4   am
    26    14    15    2
    27     8     9   ar
    28    10    11   ar
    29    12    13   ar
    30    22    23   ar
    31    24    25   ar
    32    26    27   ar
    33     4     5    2
    34    16    17    1
@<TRIPOS>MOLECULE
MolPort-006-579-789 ChemDiv-V020-6693 MCULE-2293517034 PubChem-46040753 ZINC000037544505 ZINC37544505
 32 34 0 0 0
SMALL
GASTEIGER

@<TRIPOS>ATOM
      1 C          10.7287   40.3076   10.2102 C.3     1  UNL1        0.1015
      2 C          10.9708   41.8069   10.1557 C.3     1  UNL1        0.0435
      3 C          10.8518   42.3017    8.7169 C.3     1  UNL1        0.0971
      4 C          12.0940   40.1668    8.1402 C.2     1  UNL1        0.3112
      5 O          12.7982   39.5096    7.3255 O.2     1  UNL1       -0.2520
      6 N          11.7479   39.6117    9.4264 N.am    1  UNL1       -0.2430
      7 N          11.6166   41.4774    7.7789 N.am    1  UNL1       -0.2596
      8 C          14.1889   37.1129   10.8341 C.ar    1  UNL1        0.0516
      9 C          13.6521   38.2996   10.3257 C.ar    1  UNL1        0.0296
     10 C          12.3063   38.3782    9.9306 C.ar    1  UNL1        0.0565
     11 C          11.4973   37.2382   10.0694 C.ar    1  UNL1        0.0150
     12 C          12.0240   36.0481   10.5759 C.ar    1  UNL1        0.0026
     13 C          13.3658   35.9852   10.9557 C.ar    1  UNL1        0.0148
     14 C          16.7040   37.2156   10.3472 C.2     1  UNL1        0.2563
     15 O          16.5627   37.3467    9.1027 O.2     1  UNL1       -0.2720
     16 N          15.5707   37.0904   11.2162 N.am    1  UNL1       -0.2818
     17 H          15.7611   36.9771   12.1754 H       1  UNL1        0.1549
     18 C          18.0747   37.1799   10.9246 C.3     1  UNL1        0.2273
     19 C          19.4271   35.6511   11.7620 C.3     1  UNL1        0.1748
     20 O          18.6798   35.9591   10.6265 O.3     1  UNL1       -0.3417
     21 C          11.8602   42.0228    6.4487 C.3     1  UNL1        0.1218
     22 C          13.1929   42.6923    6.3901 C.ar    1  UNL1        0.0007
     23 C          14.2410   42.2401    7.1992 C.ar    1  UNL1        0.0346
     24 C          15.4889   42.8713    7.1612 C.ar    1  UNL1        0.1465
     25 C          15.6795   43.9670    6.3031 C.ar    1  UNL1        0.0372
     26 C          14.6332   44.4208    5.4953 C.ar    1  UNL1        0.0028
     27 C          13.3904   43.7841    5.5396 C.ar    1  UNL1       -0.0024
     28 O          16.5141   42.3884    7.9842 O.3     1  UNL1       -0.4045
     29 C          17.9017   42.6243    7.7555 C.3     1  UNL1        0.5753
     30 F          18.3256   43.7178    8.4891 F       1  UNL1       -0.1328
     31 F          18.1000   42.8802    6.4126 F       1  UNL1       -0.1328
     32 F          18.6377   41.5090    8.1136 F       1  UNL1       -0.1328
@<TRIPOS>BOND
     1    19    20    1
     2    18    20    1
     3    18    14    1
     4    14    16   am
     5     9    10   ar
     6    10     6    1
     7    11    12   ar
     8    13     8   ar
     9     1     6    1
    10     1     2    1
    11     2     3    1
    12     3     7    1
    13    21     7    1
    14    21    22    1
    15    23    24   ar
    16    24    28    1
    17    29    28    1
    18    29    30    1
    19    29    31    1
    20    29    32    1
    21    25    26   ar
    22    27    22   ar
    23     4     6   am
    24    16     8    1
    25     7     4   am
    26    14    15    2
    27     8     9   ar
    28    10    11   ar
    29    12    13   ar
    30    22    23   ar
    31    24    25   ar
    32    26    27   ar
    33     4     5    2
    34    16    17    1
