@<TRIPOS>MOLECULE
MolPort-045-965-923 952990967 CSSS00159968264 MCULE-1112863886 PubChem-131935621 ZINC000952990967
 28 30 0 0 0
SMALL
GASTEIGER

@<TRIPOS>ATOM
      1 C          10.4767   41.3765    9.0268 C.ar    1  UNL1        0.0611
      2 C          11.3210   42.4874    9.1188 C.ar    1  UNL1        0.0168
      3 C          12.1446   42.8423    8.0488 C.ar    1  UNL1        0.0160
      4 C          12.1513   42.0736    6.8775 C.ar    1  UNL1        0.0515
      5 C          11.3194   40.9548    6.7867 C.ar    1  UNL1        0.0273
      6 C          10.4901   40.5923    7.8527 C.ar    1  UNL1        0.0723
      7 CL          9.5675   39.1040    7.7062 Cl      1  UNL1       -0.0809
      8 C           8.5926   41.8647   10.6477 C.2     1  UNL1        0.2563
      9 O           8.4463   43.0480   10.2391 O.2     1  UNL1       -0.2720
     10 N           9.6589   41.0481   10.1558 N.am    1  UNL1       -0.2812
     11 H           9.8433   40.2027   10.6252 H       1  UNL1        0.1550
     12 C           7.6773   41.3235   11.6883 C.3     1  UNL1        0.2273
     13 C           8.7493   41.1491   13.6082 C.3     1  UNL1        0.1748
     14 O           7.8916   41.9865   12.8967 O.3     1  UNL1       -0.3417
     15 C          14.2053   43.1344    5.7951 C.2     1  UNL1        0.2541
     16 O          14.4812   43.9474    4.8740 O.2     1  UNL1       -0.2696
     17 N          12.9529   42.4385    5.7479 N.am    1  UNL1       -0.2802
     18 H          12.6129   42.1886    4.8584 H       1  UNL1        0.1552
     19 C          15.2042   42.8704    6.8486 C.ar    1  UNL1        0.1102
     20 C          15.2259   41.8365    7.7540 C.ar    1  UNL1        0.1696
     21 C          14.6027   39.8715    8.8591 C.ar    1  UNL1        0.0978
     22 C          15.6989   40.0190    9.7316 C.ar    1  UNL1        0.0165
     23 C          15.9476   39.0232   10.8059 C.3     1  UNL1        0.0343
     24 C          16.5505   41.1203    9.5711 C.ar    1  UNL1        0.0993
     25 C          16.3026   43.6580    7.2031 C.ar    1  UNL1        0.1281
     26 N          14.3748   40.7872    7.8722 N.ar    1  UNL1       -0.2251
     27 N          16.2685   41.9905    8.5727 N.ar    1  UNL1       -0.2108
     28 N          16.9362   43.0864    8.2598 N.ar    1  UNL1       -0.1619
@<TRIPOS>BOND
     1    13    14    1
     2    12    14    1
     3    12     8    1
     4     8    10   am
     5     2     3   ar
     6     4    17    1
     7     4     5   ar
     8    15    19    1
     9    20    26   ar
    10    21    22   ar
    11    23    22    1
    12    24    27   ar
    13    25    19   ar
    14     6     7    1
    15     6     1   ar
    16    10     1    1
    17    17    15   am
    18    27    28   ar
    19    27    20   ar
    20     8     9    2
    21     1     2   ar
    22     3     4   ar
    23    15    16    2
    24    19    20   ar
    25    21    26   ar
    26    22    24   ar
    27    25    28   ar
    28     5     6   ar
    29    10    11    1
    30    17    18    1
@<TRIPOS>MOLECULE
MolPort-045-965-923 952990967 CSSS00159968264 MCULE-1112863886 PubChem-131935621 ZINC000952990967
 28 30 0 0 0
SMALL
GASTEIGER

@<TRIPOS>ATOM
      1 C           7.9737   42.3556    8.8245 C.ar    1  UNL1        0.0611
      2 C           8.1270   41.1861    8.0735 C.ar    1  UNL1        0.0168
      3 C           9.2553   40.3806    8.2385 C.ar    1  UNL1        0.0160
      4 C          10.2596   40.7487    9.1434 C.ar    1  UNL1        0.0515
      5 C          10.1169   41.9236    9.8857 C.ar    1  UNL1        0.0273
      6 C           8.9896   42.7361    9.7282 C.ar    1  UNL1        0.0723
      7 CL          8.9444   44.2572   10.6068 Cl      1  UNL1       -0.0809
      8 C           5.4630   42.6887    8.7950 C.2     1  UNL1        0.2563
      9 O           5.2223   41.4615    8.9522 O.2     1  UNL1       -0.2720
     10 N           6.8032   43.1529    8.6108 N.am    1  UNL1       -0.2812
     11 H           6.9298   44.0840    8.3171 H       1  UNL1        0.1550
     12 C           4.3392   43.6628    8.7520 C.3     1  UNL1        0.2273
     13 C           3.5450   41.7437    9.4945 C.3     1  UNL1        0.1748
     14 O           3.1722   43.0584    9.2194 O.3     1  UNL1       -0.3417
     15 C          12.5047   39.7440    8.4606 C.2     1  UNL1        0.2541
     16 O          13.0611   38.6164    8.3960 O.2     1  UNL1       -0.2696
     17 N          11.4068   39.9201    9.3654 N.am    1  UNL1       -0.2802
     18 H          11.4446   39.4268   10.2165 H       1  UNL1        0.1552
     19 C          13.0434   40.8619    7.6621 C.ar    1  UNL1        0.1102
     20 C          14.2721   41.4676    7.7752 C.ar    1  UNL1        0.1696
     21 C          16.4402   41.9120    8.5319 C.ar    1  UNL1        0.0978
     22 C          16.5369   42.9787    7.6167 C.ar    1  UNL1        0.0165
     23 C          17.7753   43.7959    7.5384 C.3     1  UNL1        0.0343
     24 C          15.4463   43.2576    6.7821 C.ar    1  UNL1        0.0993
     25 C          12.3904   41.5970    6.6693 C.ar    1  UNL1        0.1281
     26 N          15.3017   41.1616    8.6032 N.ar    1  UNL1       -0.2251
     27 N          14.3479   42.4750    6.9033 N.ar    1  UNL1       -0.2108
     28 N          13.2208   42.5741    6.2216 N.ar    1  UNL1       -0.1619
@<TRIPOS>BOND
     1    13    14    1
     2    12    14    1
     3    12     8    1
     4     8    10   am
     5     2     3   ar
     6     4    17    1
     7     4     5   ar
     8    15    19    1
     9    20    26   ar
    10    21    22   ar
    11    23    22    1
    12    24    27   ar
    13    25    19   ar
    14     6     7    1
    15     6     1   ar
    16    10     1    1
    17    17    15   am
    18    27    28   ar
    19    27    20   ar
    20     8     9    2
    21     1     2   ar
    22     3     4   ar
    23    15    16    2
    24    19    20   ar
    25    21    26   ar
    26    22    24   ar
    27    25    28   ar
    28     5     6   ar
    29    10    11    1
    30    17    18    1
@<TRIPOS>MOLECULE
MolPort-045-965-923 952990967 CSSS00159968264 MCULE-1112863886 PubChem-131935621 ZINC000952990967
 28 30 0 0 0
SMALL
GASTEIGER

@<TRIPOS>ATOM
      1 C          13.3899   41.6262    7.8486 C.ar    1  UNL1        0.0611
      2 C          12.0811   41.9026    7.4410 C.ar    1  UNL1        0.0168
      3 C          10.9963   41.5143    8.2294 C.ar    1  UNL1        0.0160
      4 C          11.2070   40.8211    9.4286 C.ar    1  UNL1        0.0515
      5 C          12.5125   40.5307    9.8326 C.ar    1  UNL1        0.0273
      6 C          13.6054   40.9168    9.0502 C.ar    1  UNL1        0.0723
      7 CL         15.2058   40.4062    9.5659 Cl      1  UNL1       -0.0809
      8 C          14.5595   43.3169    6.3690 C.2     1  UNL1        0.2563
      9 O          13.5706   44.0981    6.3508 O.2     1  UNL1       -0.2720
     10 N          14.4679   42.0363    6.9995 N.am    1  UNL1       -0.2812
     11 H          15.1954   41.3928    6.8387 H       1  UNL1        0.1550
     12 C          15.8227   43.7074    5.6869 C.3     1  UNL1        0.2273
     13 C          17.3549   44.0512    7.2360 C.3     1  UNL1        0.1748
     14 O          16.4551   44.7203    6.4079 O.3     1  UNL1       -0.3417
     15 C           9.2831   41.3490   11.0211 C.2     1  UNL1        0.2541
     16 O           8.8577   40.9887   12.1500 O.2     1  UNL1       -0.2696
     17 N          10.1161   40.4488   10.2789 N.am    1  UNL1       -0.2802
     18 H           9.9207   39.4874   10.3611 H       1  UNL1        0.1552
     19 C           8.8542   42.6483   10.4686 C.ar    1  UNL1        0.1102
     20 C           7.7101   42.9307    9.7611 C.ar    1  UNL1        0.1696
     21 C           5.6360   42.6215    8.7250 C.ar    1  UNL1        0.0978
     22 C           5.6357   43.9740    8.3306 C.ar    1  UNL1        0.0165
     23 C           4.5006   44.5325    7.5512 C.3     1  UNL1        0.0343
     24 C           6.7233   44.7840    8.6837 C.ar    1  UNL1        0.0993
     25 C           9.5561   43.8564   10.4792 C.ar    1  UNL1        0.1281
     26 N           6.6795   42.1091    9.4410 N.ar    1  UNL1       -0.2251
     27 N           7.7249   44.2138    9.3945 N.ar    1  UNL1       -0.2108
     28 N           8.8325   44.7962    9.8173 N.ar    1  UNL1       -0.1619
@<TRIPOS>BOND
     1    13    14    1
     2    12    14    1
     3    12     8    1
     4     8    10   am
     5     2     3   ar
     6     4    17    1
     7     4     5   ar
     8    15    19    1
     9    20    26   ar
    10    21    22   ar
    11    23    22    1
    12    24    27   ar
    13    25    19   ar
    14     6     7    1
    15     6     1   ar
    16    10     1    1
    17    17    15   am
    18    27    28   ar
    19    27    20   ar
    20     8     9    2
    21     1     2   ar
    22     3     4   ar
    23    15    16    2
    24    19    20   ar
    25    21    26   ar
    26    22    24   ar
    27    25    28   ar
    28     5     6   ar
    29    10    11    1
    30    17    18    1
@<TRIPOS>MOLECULE
MolPort-045-965-923 952990967 CSSS00159968264 MCULE-1112863886 PubChem-131935621 ZINC000952990967
 28 30 0 0 0
SMALL
GASTEIGER

@<TRIPOS>ATOM
      1 C          13.4281   42.1179    6.9543 C.ar    1  UNL1        0.0611
      2 C          12.4404   42.1056    5.9645 C.ar    1  UNL1        0.0168
      3 C          11.5512   41.0340    5.8638 C.ar    1  UNL1        0.0160
      4 C          11.6543   39.9459    6.7405 C.ar    1  UNL1        0.0515
      5 C          12.6485   39.9479    7.7220 C.ar    1  UNL1        0.0273
      6 C          13.5428   41.0175    7.8314 C.ar    1  UNL1        0.0723
      7 CL         14.8392   40.8867    9.0105 Cl      1  UNL1       -0.0809
      8 C          14.7456   43.9901    5.8705 C.2     1  UNL1        0.2563
      9 O          14.5209   43.5740    4.7022 O.2     1  UNL1       -0.2720
     10 N          14.3223   43.2354    7.0093 N.am    1  UNL1       -0.2812
     11 H          14.6692   43.5022    7.8912 H       1  UNL1        0.1550
     12 C          15.5012   45.2558    6.0718 C.3     1  UNL1        0.2273
     13 C          17.3566   44.2507    6.7139 C.3     1  UNL1        0.1748
     14 O          16.8365   45.0706    5.7137 O.3     1  UNL1       -0.3417
     15 C           9.3479   38.9026    7.0690 C.2     1  UNL1        0.2541
     16 O           8.8315   37.8880    7.6069 O.2     1  UNL1       -0.2696
     17 N          10.7292   38.8536    6.6889 N.am    1  UNL1       -0.2802
     18 H          11.0733   37.9907    6.3628 H       1  UNL1        0.1552
     19 C           8.5019   40.0771    6.7817 C.ar    1  UNL1        0.1102
     20 C           8.4214   41.2545    7.4862 C.ar    1  UNL1        0.1696
     21 C           8.8712   42.8784    9.1084 C.ar    1  UNL1        0.0978
     22 C           7.8983   43.7185    8.5317 C.ar    1  UNL1        0.0165
     23 C           7.6209   45.0591    9.1093 C.3     1  UNL1        0.0343
     24 C           7.1956   43.2696    7.4056 C.ar    1  UNL1        0.0993
     25 C           7.5430   40.2153    5.7748 C.ar    1  UNL1        0.1281
     26 N           9.1254   41.6466    8.5771 N.ar    1  UNL1       -0.2251
     27 N           7.4964   42.0385    6.9286 N.ar    1  UNL1       -0.2108
     28 N           6.9498   41.4316    5.8904 N.ar    1  UNL1       -0.1619
@<TRIPOS>BOND
     1    13    14    1
     2    12    14    1
     3    12     8    1
     4     8    10   am
     5     2     3   ar
     6     4    17    1
     7     4     5   ar
     8    15    19    1
     9    20    26   ar
    10    21    22   ar
    11    23    22    1
    12    24    27   ar
    13    25    19   ar
    14     6     7    1
    15     6     1   ar
    16    10     1    1
    17    17    15   am
    18    27    28   ar
    19    27    20   ar
    20     8     9    2
    21     1     2   ar
    22     3     4   ar
    23    15    16    2
    24    19    20   ar
    25    21    26   ar
    26    22    24   ar
    27    25    28   ar
    28     5     6   ar
    29    10    11    1
    30    17    18    1
@<TRIPOS>MOLECULE
MolPort-045-965-923 952990967 CSSS00159968264 MCULE-1112863886 PubChem-131935621 ZINC000952990967
 28 30 0 0 0
SMALL
GASTEIGER

@<TRIPOS>ATOM
      1 C           8.3219   41.9327    9.2938 C.ar    1  UNL1        0.0611
      2 C           9.0397   41.9475   10.4938 C.ar    1  UNL1        0.0168
      3 C          10.1620   41.1337   10.6585 C.ar    1  UNL1        0.0160
      4 C          10.5682   40.2740    9.6295 C.ar    1  UNL1        0.0515
      5 C           9.8457   40.2459    8.4341 C.ar    1  UNL1        0.0273
      6 C           8.7209   41.0584    8.2594 C.ar    1  UNL1        0.0723
      7 CL          7.7967   40.8737    6.7763 Cl      1  UNL1       -0.0809
      8 C           5.8270   42.3526    9.4143 C.2     1  UNL1        0.2563
      9 O           5.5500   41.1286    9.5310 O.2     1  UNL1       -0.2720
     10 N           7.1719   42.7784    9.1783 N.am    1  UNL1       -0.2812
     11 H           7.3170   43.7170    8.9188 H       1  UNL1        0.1550
     12 C           4.7390   43.3657    9.4742 C.3     1  UNL1        0.2273
     13 C           3.8767   44.6631    7.9126 C.3     1  UNL1        0.1748
     14 O           5.0462   44.4385    8.6373 O.3     1  UNL1       -0.3417
     15 C          12.7825   39.3322    8.7776 C.2     1  UNL1        0.2541
     16 O          13.3522   38.2175    8.6428 O.2     1  UNL1       -0.2696
     17 N          11.7404   39.4602    9.7536 N.am    1  UNL1       -0.2802
     18 H          11.8393   38.9418   10.5846 H       1  UNL1        0.1552
     19 C          13.2519   40.4839    7.9833 C.ar    1  UNL1        0.1102
     20 C          14.4533   41.1446    8.0794 C.ar    1  UNL1        0.1696
     21 C          16.6140   41.6802    8.7975 C.ar    1  UNL1        0.0978
     22 C          16.6419   42.7615    7.8949 C.ar    1  UNL1        0.0165
     23 C          17.8392   43.6364    7.8023 C.3     1  UNL1        0.0343
     24 C          15.5222   42.9997    7.0866 C.ar    1  UNL1        0.0993
     25 C          12.5448   41.2000    7.0139 C.ar    1  UNL1        0.1281
     26 N          15.5132   40.8767    8.8820 N.ar    1  UNL1       -0.2251
     27 N          14.4641   42.1653    7.2196 N.ar    1  UNL1       -0.2108
     28 N          13.3195   42.2203    6.5625 N.ar    1  UNL1       -0.1619
@<TRIPOS>BOND
     1    13    14    1
     2    12    14    1
     3    12     8    1
     4     8    10   am
     5     2     3   ar
     6     4    17    1
     7     4     5   ar
     8    15    19    1
     9    20    26   ar
    10    21    22   ar
    11    23    22    1
    12    24    27   ar
    13    25    19   ar
    14     6     7    1
    15     6     1   ar
    16    10     1    1
    17    17    15   am
    18    27    28   ar
    19    27    20   ar
    20     8     9    2
    21     1     2   ar
    22     3     4   ar
    23    15    16    2
    24    19    20   ar
    25    21    26   ar
    26    22    24   ar
    27    25    28   ar
    28     5     6   ar
    29    10    11    1
    30    17    18    1
@<TRIPOS>MOLECULE
MolPort-045-965-923 952990967 CSSS00159968264 MCULE-1112863886 PubChem-131935621 ZINC000952990967
 28 30 0 0 0
SMALL
GASTEIGER

@<TRIPOS>ATOM
      1 C          12.3143   39.0171    9.1661 C.ar    1  UNL1        0.0611
      2 C          10.9582   39.2107    9.4471 C.ar    1  UNL1        0.0168
      3 C          10.4622   40.4913    9.6986 C.ar    1  UNL1        0.0160
      4 C          11.3242   41.5958    9.6952 C.ar    1  UNL1        0.0515
      5 C          12.6822   41.4050    9.4286 C.ar    1  UNL1        0.0273
      6 C          13.1880   40.1262    9.1743 C.ar    1  UNL1        0.0723
      7 CL         14.9250   39.9556    8.9705 Cl      1  UNL1       -0.0809
      8 C          13.3694   36.8403    9.9169 C.2     1  UNL1        0.2563
      9 O          13.7250   37.3094   11.0314 O.2     1  UNL1       -0.2720
     10 N          12.7755   37.6828    8.9253 N.am    1  UNL1       -0.2812
     11 H          12.6770   37.3207    8.0151 H       1  UNL1        0.1550
     12 C          13.6121   35.4055    9.6074 C.3     1  UNL1        0.2273
     13 C          15.2139   34.3691    8.5003 C.3     1  UNL1        0.1748
     14 O          14.9814   35.1410    9.6375 O.3     1  UNL1       -0.3417
     15 C           9.4597   43.3082   10.0229 C.2     1  UNL1        0.2541
     16 O           9.0991   44.4214    9.5579 O.2     1  UNL1       -0.2696
     17 N          10.8364   42.9259    9.9065 N.am    1  UNL1       -0.2802
     18 H          11.5076   43.6425    9.9783 H       1  UNL1        0.1552
     19 C           8.4755   42.4694   10.7336 C.ar    1  UNL1        0.1102
     20 C           7.1956   42.1534   10.3448 C.ar    1  UNL1        0.1696
     21 C           5.2605   42.0498    9.0349 C.ar    1  UNL1        0.0978
     22 C           4.6349   41.2701   10.0276 C.ar    1  UNL1        0.0165
     23 C           3.2392   40.7940    9.8449 C.3     1  UNL1        0.0343
     24 C           5.3489   40.9515   11.1904 C.ar    1  UNL1        0.0993
     25 C           8.6057   41.8781   11.9929 C.ar    1  UNL1        0.1281
     26 N           6.5430   42.4869    9.2036 N.ar    1  UNL1       -0.2251
     27 N           6.6166   41.4160   11.2946 N.ar    1  UNL1       -0.2108
     28 N           7.4501   41.2354   12.3034 N.ar    1  UNL1       -0.1619
@<TRIPOS>BOND
     1    13    14    1
     2    12    14    1
     3    12     8    1
     4     8    10   am
     5     2     3   ar
     6     4    17    1
     7     4     5   ar
     8    15    19    1
     9    20    26   ar
    10    21    22   ar
    11    23    22    1
    12    24    27   ar
    13    25    19   ar
    14     6     7    1
    15     6     1   ar
    16    10     1    1
    17    17    15   am
    18    27    28   ar
    19    27    20   ar
    20     8     9    2
    21     1     2   ar
    22     3     4   ar
    23    15    16    2
    24    19    20   ar
    25    21    26   ar
    26    22    24   ar
    27    25    28   ar
    28     5     6   ar
    29    10    11    1
    30    17    18    1
@<TRIPOS>MOLECULE
MolPort-045-965-923 952990967 CSSS00159968264 MCULE-1112863886 PubChem-131935621 ZINC000952990967
 28 30 0 0 0
SMALL
GASTEIGER

@<TRIPOS>ATOM
      1 C          13.9582   41.9928    7.1500 C.ar    1  UNL1        0.0611
      2 C          13.0529   42.3258    6.1375 C.ar    1  UNL1        0.0168
      3 C          11.9075   41.5552    5.9293 C.ar    1  UNL1        0.0160
      4 C          11.6643   40.4237    6.7189 C.ar    1  UNL1        0.0515
      5 C          12.5733   40.0795    7.7224 C.ar    1  UNL1        0.0273
      6 C          13.7227   40.8461    7.9393 C.ar    1  UNL1        0.0723
      7 CL         14.8757   40.2765    9.1369 Cl      1  UNL1       -0.0809
      8 C          15.6008   43.7454    6.3466 C.2     1  UNL1        0.2563
      9 O          15.1369   43.7520    5.1747 O.2     1  UNL1       -0.2720
     10 N          15.1232   42.8090    7.3165 N.am    1  UNL1       -0.2812
     11 H          15.6298   42.7194    8.1558 H       1  UNL1        0.1550
     12 C          16.6909   44.6883    6.7153 C.3     1  UNL1        0.2273
     13 C          18.1698   43.4791    7.8181 C.3     1  UNL1        0.1748
     14 O          17.1445   44.4051    8.0036 O.3     1  UNL1       -0.3417
     15 C           9.3349   39.6539    7.4241 C.2     1  UNL1        0.2541
     16 O           8.7059   38.5799    7.6144 O.2     1  UNL1       -0.2696
     17 N          10.4764   39.6399    6.5570 N.am    1  UNL1       -0.2802
     18 H          10.4406   39.0367    5.7797 H       1  UNL1        0.1552
     19 C           8.8375   40.9005    8.0373 C.ar    1  UNL1        0.1102
     20 C           7.5350   41.2549    8.2964 C.ar    1  UNL1        0.1696
     21 C           5.2055   41.1039    8.4431 C.ar    1  UNL1        0.0978
     22 C           5.1590   42.4042    8.9833 C.ar    1  UNL1        0.0165
     23 C           3.8593   43.0213    9.3541 C.3     1  UNL1        0.0343
     24 C           6.3578   43.1070    9.1643 C.ar    1  UNL1        0.0993
     25 C           9.5786   42.0227    8.4164 C.ar    1  UNL1        0.1281
     26 N           6.4004   40.5377    8.1026 N.ar    1  UNL1       -0.2251
     27 N           7.5076   42.4877    8.8066 N.ar    1  UNL1       -0.2108
     28 N           8.7328   42.9745    8.8892 N.ar    1  UNL1       -0.1619
@<TRIPOS>BOND
     1    13    14    1
     2    12    14    1
     3    12     8    1
     4     8    10   am
     5     2     3   ar
     6     4    17    1
     7     4     5   ar
     8    15    19    1
     9    20    26   ar
    10    21    22   ar
    11    23    22    1
    12    24    27   ar
    13    25    19   ar
    14     6     7    1
    15     6     1   ar
    16    10     1    1
    17    17    15   am
    18    27    28   ar
    19    27    20   ar
    20     8     9    2
    21     1     2   ar
    22     3     4   ar
    23    15    16    2
    24    19    20   ar
    25    21    26   ar
    26    22    24   ar
    27    25    28   ar
    28     5     6   ar
    29    10    11    1
    30    17    18    1
@<TRIPOS>MOLECULE
MolPort-045-965-923 952990967 CSSS00159968264 MCULE-1112863886 PubChem-131935621 ZINC000952990967
 28 30 0 0 0
SMALL
GASTEIGER

@<TRIPOS>ATOM
      1 C          10.7010   39.8155    6.2034 C.ar    1  UNL1        0.0611
      2 C          11.3273   41.0638    6.1334 C.ar    1  UNL1        0.0168
      3 C          11.3402   41.9135    7.2410 C.ar    1  UNL1        0.0160
      4 C          10.7038   41.5336    8.4300 C.ar    1  UNL1        0.0515
      5 C          10.0650   40.2931    8.4998 C.ar    1  UNL1        0.0273
      6 C          10.0479   39.4347    7.3959 C.ar    1  UNL1        0.0723
      7 CL          9.1191   37.9487    7.5253 Cl      1  UNL1       -0.0809
      8 C           9.6501   38.9353    4.0735 C.2     1  UNL1        0.2563
      9 O           8.5346   39.4709    4.3129 O.2     1  UNL1       -0.2720
     10 N          10.7065   38.9851    5.0365 N.am    1  UNL1       -0.2812
     11 H          11.4909   38.4093    4.8870 H       1  UNL1        0.1550
     12 C           9.8587   38.2008    2.7966 C.3     1  UNL1        0.2273
     13 C          10.3450   36.1560    3.4654 C.3     1  UNL1        0.1748
     14 O           9.3240   36.9165    2.8978 O.3     1  UNL1       -0.3417
     15 C           9.8505   43.4551    9.8775 C.2     1  UNL1        0.2541
     16 O          10.3022   44.4633   10.4817 O.2     1  UNL1       -0.2696
     17 N          10.7382   42.3654    9.5956 N.am    1  UNL1       -0.2802
     18 H          11.4346   42.1711   10.2638 H       1  UNL1        0.1552
     19 C           8.4139   43.3958    9.5457 C.ar    1  UNL1        0.1102
     20 C           7.4426   42.6166   10.1276 C.ar    1  UNL1        0.1696
     21 C           6.4319   41.0872   11.5803 C.ar    1  UNL1        0.0978
     22 C           5.1988   41.2900   10.9300 C.ar    1  UNL1        0.0165
     23 C           3.9823   40.5621   11.3749 C.3     1  UNL1        0.0343
     24 C           5.1377   42.1881    9.8561 C.ar    1  UNL1        0.0993
     25 C           7.7452   44.0628    8.5160 C.ar    1  UNL1        0.1281
     26 N           7.5494   41.7564   11.1707 N.ar    1  UNL1       -0.2251
     27 N           6.2819   42.8193    9.5009 N.ar    1  UNL1       -0.2108
     28 N           6.4389   43.6909    8.5208 N.ar    1  UNL1       -0.1619
@<TRIPOS>BOND
     1    13    14    1
     2    12    14    1
     3    12     8    1
     4     8    10   am
     5     2     3   ar
     6     4    17    1
     7     4     5   ar
     8    15    19    1
     9    20    26   ar
    10    21    22   ar
    11    23    22    1
    12    24    27   ar
    13    25    19   ar
    14     6     7    1
    15     6     1   ar
    16    10     1    1
    17    17    15   am
    18    27    28   ar
    19    27    20   ar
    20     8     9    2
    21     1     2   ar
    22     3     4   ar
    23    15    16    2
    24    19    20   ar
    25    21    26   ar
    26    22    24   ar
    27    25    28   ar
    28     5     6   ar
    29    10    11    1
    30    17    18    1
@<TRIPOS>MOLECULE
MolPort-045-965-923 952990967 CSSS00159968264 MCULE-1112863886 PubChem-131935621 ZINC000952990967
 28 30 0 0 0
SMALL
GASTEIGER

@<TRIPOS>ATOM
      1 C          10.3576   40.7206    9.2173 C.ar    1  UNL1        0.0611
      2 C          11.4415   40.5173    8.3575 C.ar    1  UNL1        0.0168
      3 C          12.7077   40.2279    8.8694 C.ar    1  UNL1        0.0160
      4 C          12.9115   40.1613   10.2539 C.ar    1  UNL1        0.0515
      5 C          11.8342   40.3776   11.1168 C.ar    1  UNL1        0.0273
      6 C          10.5620   40.6667   10.6133 C.ar    1  UNL1        0.0723
      7 CL          9.2900   41.0468   11.7646 Cl      1  UNL1       -0.0809
      8 C           8.8883   41.5160    7.3136 C.2     1  UNL1        0.2563
      9 O           9.8654   41.9219    6.6287 O.2     1  UNL1       -0.2720
     10 N           9.0814   41.0249    8.6430 N.am    1  UNL1       -0.2812
     11 H           8.2825   40.8866    9.2014 H       1  UNL1        0.1550
     12 C           7.5116   41.5917    6.7548 C.3     1  UNL1        0.2273
     13 C           6.9093   39.5595    6.1444 C.3     1  UNL1        0.1748
     14 O           7.4080   40.7596    5.6401 O.3     1  UNL1       -0.3417
     15 C          14.5470   38.5633   11.3887 C.2     1  UNL1        0.2541
     16 O          15.3407   38.5514   12.3660 O.2     1  UNL1       -0.2696
     17 N          14.1891   39.8235   10.8066 N.am    1  UNL1       -0.2802
     18 H          14.8845   40.5201   10.7847 H       1  UNL1        0.1552
     19 C          14.0702   37.2835   10.8299 C.ar    1  UNL1        0.1102
     20 C          14.7520   36.4082   10.0185 C.ar    1  UNL1        0.1696
     21 C          16.4965   35.4743    8.7714 C.ar    1  UNL1        0.0978
     22 C          15.6601   34.3983    8.4143 C.ar    1  UNL1        0.0165
     23 C          16.1647   33.3084    7.5395 C.3     1  UNL1        0.0343
     24 C          14.3444   34.3727    8.8960 C.ar    1  UNL1        0.0993
     25 C          12.7955   36.7225   10.9425 C.ar    1  UNL1        0.1281
     26 N          16.0319   36.4755    9.5751 N.ar    1  UNL1       -0.2251
     27 N          13.9471   35.3960    9.6888 N.ar    1  UNL1       -0.2108
     28 N          12.7565   35.5632   10.2359 N.ar    1  UNL1       -0.1619
@<TRIPOS>BOND
     1    13    14    1
     2    12    14    1
     3    12     8    1
     4     8    10   am
     5     2     3   ar
     6     4    17    1
     7     4     5   ar
     8    15    19    1
     9    20    26   ar
    10    21    22   ar
    11    23    22    1
    12    24    27   ar
    13    25    19   ar
    14     6     7    1
    15     6     1   ar
    16    10     1    1
    17    17    15   am
    18    27    28   ar
    19    27    20   ar
    20     8     9    2
    21     1     2   ar
    22     3     4   ar
    23    15    16    2
    24    19    20   ar
    25    21    26   ar
    26    22    24   ar
    27    25    28   ar
    28     5     6   ar
    29    10    11    1
    30    17    18    1
@<TRIPOS>MOLECULE
MolPort-045-965-923 952990967 CSSS00159968264 MCULE-1112863886 PubChem-131935621 ZINC000952990967
 28 30 0 0 0
SMALL
GASTEIGER

@<TRIPOS>ATOM
      1 C          11.2218   41.2107    8.5239 C.ar    1  UNL1        0.0611
      2 C          11.0008   40.6194    9.7717 C.ar    1  UNL1        0.0168
      3 C          12.0740   40.1671   10.5417 C.ar    1  UNL1        0.0160
      4 C          13.3851   40.2797   10.0610 C.ar    1  UNL1        0.0515
      5 C          13.6093   40.8572    8.8088 C.ar    1  UNL1        0.0273
      6 C          12.5408   41.3144    8.0309 C.ar    1  UNL1        0.0723
      7 CL         12.8968   41.9142    6.4180 Cl      1  UNL1       -0.0809
      8 C           9.4643   40.8892    6.7285 C.2     1  UNL1        0.2563
      9 O          10.0214   39.8597    6.2612 O.2     1  UNL1       -0.2720
     10 N          10.0869   41.6490    7.7681 N.am    1  UNL1       -0.2812
     11 H           9.7096   42.5337    7.9785 H       1  UNL1        0.1550
     12 C           8.1678   41.3496    6.1624 C.3     1  UNL1        0.2273
     13 C           6.5921   39.8162    6.3390 C.3     1  UNL1        0.1748
     14 O           7.5603   40.3062    5.4639 O.3     1  UNL1       -0.3417
     15 C          14.6833   38.5749   11.4482 C.2     1  UNL1        0.2541
     16 O          15.2624   38.5005   12.5638 O.2     1  UNL1       -0.2696
     17 N          14.5082   39.8645   10.8471 N.am    1  UNL1       -0.2802
     18 H          15.2250   40.5247   10.9873 H       1  UNL1        0.1552
     19 C          14.2708   37.3340   10.7645 C.ar    1  UNL1        0.1102
     20 C          15.0293   36.5207    9.9568 C.ar    1  UNL1        0.1696
     21 C          16.8846   35.6849    8.8033 C.ar    1  UNL1        0.0978
     22 C          16.0942   34.6315    8.3030 C.ar    1  UNL1        0.0165
     23 C          16.6841   33.6074    7.4025 C.3     1  UNL1        0.0343
     24 C          14.7426   34.5653    8.6670 C.ar    1  UNL1        0.0993
     25 C          12.9976   36.7594   10.7285 C.ar    1  UNL1        0.1281
     26 N          16.3416   36.6256    9.6307 N.ar    1  UNL1       -0.2251
     27 N          14.2673   35.5292    9.4908 N.ar    1  UNL1       -0.2108
     28 N          13.0324   35.6514    9.9437 N.ar    1  UNL1       -0.1619
@<TRIPOS>BOND
     1    13    14    1
     2    12    14    1
     3    12     8    1
     4     8    10   am
     5     2     3   ar
     6     4    17    1
     7     4     5   ar
     8    15    19    1
     9    20    26   ar
    10    21    22   ar
    11    23    22    1
    12    24    27   ar
    13    25    19   ar
    14     6     7    1
    15     6     1   ar
    16    10     1    1
    17    17    15   am
    18    27    28   ar
    19    27    20   ar
    20     8     9    2
    21     1     2   ar
    22     3     4   ar
    23    15    16    2
    24    19    20   ar
    25    21    26   ar
    26    22    24   ar
    27    25    28   ar
    28     5     6   ar
    29    10    11    1
    30    17    18    1
