@<TRIPOS>MOLECULE
MolPort-009-751-414 62023056 CSSS03437054427 MCULE-8813905927 PubChem-52907960 ZINC000062023056 ZINC62023056
 20 21 0 0 0
SMALL
GASTEIGER

@<TRIPOS>ATOM
      1 C          10.5449   41.2440    6.0683 C.ar    1  UNL1        0.1783
      2 C          10.3346   41.7834    7.3234 C.ar    1  UNL1        0.2065
      3 C          12.3774   41.9705    6.7842 C.ar    1  UNL1        0.2955
      4 O          11.5019   42.2230    7.7297 O.2     1  UNL1       -0.4202
      5 N          11.8395   41.3573    5.7149 N.ar    1  UNL1       -0.1896
      6 C           9.5183   40.6291    5.2197 C.2     1  UNL1        0.2890
      7 O           8.3061   40.6706    5.5629 O.2     1  UNL1       -0.2663
      8 N           9.8948   39.9815    4.0027 N.am    1  UNL1       -0.1883
      9 H          10.8456   39.9463    3.7498 H       1  UNL1        0.1829
     10 C           9.4970   38.1632    2.8636 C.3     1  UNL1        0.2055
     11 O           8.9708   39.4147    3.1893 O.3     1  UNL1       -0.2633
     12 C          14.3548   43.4614    6.2580 C.2     1  UNL1        0.2875
     13 O          13.6502   44.2706    5.5967 O.2     1  UNL1       -0.2663
     14 N          13.7651   42.3061    6.8650 N.am    1  UNL1       -0.2330
     15 H          14.3547   41.7023    7.3720 H       1  UNL1        0.1596
     16 C          15.7927   43.7094    6.4049 C.ar    1  UNL1        0.1989
     17 C          16.4922   43.6874    7.5930 C.ar    1  UNL1        0.0455
     18 C          17.7989   43.9752    7.2392 C.ar    1  UNL1        0.0440
     19 C          17.8074   44.1523    5.8659 C.ar    1  UNL1        0.1798
     20 O          16.5911   43.9854    5.4054 O.2     1  UNL1       -0.4458
@<TRIPOS>BOND
     1    10    11    1
     2     6     1    1
     3     1     5   ar
     4     2     4   ar
     5     3     4   ar
     6     3    14    1
     7    12    16    1
     8    16    20   ar
     9    17    18   ar
    10    19    20   ar
    11     8    11    1
    12     8     6   am
    13    14    12   am
    14     6     7    2
    15     1     2   ar
    16     3     5   ar
    17    12    13    2
    18    16    17   ar
    19    18    19   ar
    20     8     9    1
    21    14    15    1
@<TRIPOS>MOLECULE
MolPort-009-751-414 62023056 CSSS03437054427 MCULE-8813905927 PubChem-52907960 ZINC000062023056 ZINC62023056
 20 21 0 0 0
SMALL
GASTEIGER

@<TRIPOS>ATOM
      1 C          10.0961   41.6578    7.0170 C.ar    1  UNL1        0.1783
      2 C          10.4391   41.0921    5.8033 C.ar    1  UNL1        0.2065
      3 C          12.1860   41.6941    6.8447 C.ar    1  UNL1        0.2955
      4 O          11.7486   41.1362    5.7394 O.2     1  UNL1       -0.4202
      5 N          11.1982   42.0441    7.6877 N.ar    1  UNL1       -0.1896
      6 C           8.7305   41.8249    7.5263 C.2     1  UNL1        0.2890
      7 O           7.9851   42.7248    7.0536 O.2     1  UNL1       -0.2663
      8 N           8.2463   40.9659    8.5606 N.am    1  UNL1       -0.1883
      9 H           8.8409   40.2732    8.9293 H       1  UNL1        0.1829
     10 C           7.1372   41.6737   10.3015 C.3     1  UNL1        0.2055
     11 O           6.9861   41.0845    9.0448 O.3     1  UNL1       -0.2633
     12 C          14.2834   43.1116    6.8128 C.2     1  UNL1        0.2875
     13 O          13.7064   44.0659    6.2254 O.2     1  UNL1       -0.2663
     14 N          13.5676   41.9151    7.1398 N.am    1  UNL1       -0.2330
     15 H          14.0598   41.1965    7.5985 H       1  UNL1        0.1596
     16 C          15.7023   43.2322    7.1631 C.ar    1  UNL1        0.1989
     17 C          16.4061   42.3599    7.9663 C.ar    1  UNL1        0.0455
     18 C          17.6897   42.8758    8.0085 C.ar    1  UNL1        0.0440
     19 C          17.6815   44.0220    7.2318 C.ar    1  UNL1        0.1798
     20 O          16.4772   44.2004    6.7449 O.2     1  UNL1       -0.4458
@<TRIPOS>BOND
     1    10    11    1
     2     6     1    1
     3     1     5   ar
     4     2     4   ar
     5     3     4   ar
     6     3    14    1
     7    12    16    1
     8    16    20   ar
     9    17    18   ar
    10    19    20   ar
    11     8    11    1
    12     8     6   am
    13    14    12   am
    14     6     7    2
    15     1     2   ar
    16     3     5   ar
    17    12    13    2
    18    16    17   ar
    19    18    19   ar
    20     8     9    1
    21    14    15    1
@<TRIPOS>MOLECULE
MolPort-009-751-414 62023056 CSSS03437054427 MCULE-8813905927 PubChem-52907960 ZINC000062023056 ZINC62023056
 20 21 0 0 0
SMALL
GASTEIGER

@<TRIPOS>ATOM
      1 C          10.1217   41.4912    6.4079 C.ar    1  UNL1        0.1783
      2 C          10.5923   40.8570    5.2735 C.ar    1  UNL1        0.2065
      3 C          12.2176   41.5558    6.4433 C.ar    1  UNL1        0.2955
      4 O          11.9009   40.9215    5.3380 O.2     1  UNL1       -0.4202
      5 N          11.1456   41.9394    7.1591 N.ar    1  UNL1       -0.1896
      6 C           8.7097   41.6644    6.7664 C.2     1  UNL1        0.2890
      7 O           8.2221   41.0295    7.7400 O.2     1  UNL1       -0.2663
      8 N           7.8868   42.5540    6.0090 N.am    1  UNL1       -0.1883
      9 H           8.2759   43.0368    5.2443 H       1  UNL1        0.1829
     10 C           6.5249   44.0399    6.8450 C.3     1  UNL1        0.2055
     11 O           6.5822   42.7471    6.3209 O.3     1  UNL1       -0.2633
     12 C          14.2553   43.0485    6.6155 C.2     1  UNL1        0.2875
     13 O          13.6952   43.9925    5.9960 O.2     1  UNL1       -0.2663
     14 N          13.5596   41.8208    6.8600 N.am    1  UNL1       -0.2330
     15 H          14.0374   41.1116    7.3478 H       1  UNL1        0.1596
     16 C          15.6335   43.2133    7.0888 C.ar    1  UNL1        0.1989
     17 C          16.4594   44.2778    6.7954 C.ar    1  UNL1        0.0455
     18 C          17.6440   43.9979    7.4541 C.ar    1  UNL1        0.0440
     19 C          17.4608   42.7877    8.1014 C.ar    1  UNL1        0.1798
     20 O          16.2482   42.3519    7.8588 O.2     1  UNL1       -0.4458
@<TRIPOS>BOND
     1    10    11    1
     2     6     1    1
     3     1     5   ar
     4     2     4   ar
     5     3     4   ar
     6     3    14    1
     7    12    16    1
     8    16    20   ar
     9    17    18   ar
    10    19    20   ar
    11     8    11    1
    12     8     6   am
    13    14    12   am
    14     6     7    2
    15     1     2   ar
    16     3     5   ar
    17    12    13    2
    18    16    17   ar
    19    18    19   ar
    20     8     9    1
    21    14    15    1
@<TRIPOS>MOLECULE
MolPort-009-751-414 62023056 CSSS03437054427 MCULE-8813905927 PubChem-52907960 ZINC000062023056 ZINC62023056
 20 21 0 0 0
SMALL
GASTEIGER

@<TRIPOS>ATOM
      1 C          13.7249   42.7781    7.0814 C.ar    1  UNL1        0.1783
      2 C          12.9293   42.3651    6.0293 C.ar    1  UNL1        0.2065
      3 C          11.9148   42.0692    7.8682 C.ar    1  UNL1        0.2955
      4 O          11.8136   41.9318    6.5662 O.2     1  UNL1       -0.4202
      5 N          13.0906   42.5950    8.2552 N.ar    1  UNL1       -0.1896
      6 C          15.0744   43.3410    6.9623 C.2     1  UNL1        0.2890
      7 O          16.0508   42.7648    7.5133 O.2     1  UNL1       -0.2663
      8 N          15.2807   44.5452    6.2209 N.am    1  UNL1       -0.1883
      9 H          14.5091   44.9921    5.8034 H       1  UNL1        0.1829
     10 C          17.2640   44.1060    5.4239 C.3     1  UNL1        0.2055
     11 O          16.5157   45.0850    6.0803 O.3     1  UNL1       -0.2633
     12 C          10.4273   42.5395    9.8622 C.2     1  UNL1        0.2875
     13 O          10.9214   43.6851   10.0414 O.2     1  UNL1       -0.2663
     14 N          10.8899   41.7030    8.7958 N.am    1  UNL1       -0.2330
     15 H          10.4744   40.8162    8.6946 H       1  UNL1        0.1596
     16 C           9.3680   42.0625   10.7572 C.ar    1  UNL1        0.1989
     17 C           9.5629   41.3405   11.9156 C.ar    1  UNL1        0.0455
     18 C           8.2902   41.1207   12.4133 C.ar    1  UNL1        0.0440
     19 C           7.4101   41.7209   11.5288 C.ar    1  UNL1        0.1798
     20 O           8.0922   42.2720   10.5540 O.2     1  UNL1       -0.4458
@<TRIPOS>BOND
     1    10    11    1
     2     6     1    1
     3     1     5   ar
     4     2     4   ar
     5     3     4   ar
     6     3    14    1
     7    12    16    1
     8    16    20   ar
     9    17    18   ar
    10    19    20   ar
    11     8    11    1
    12     8     6   am
    13    14    12   am
    14     6     7    2
    15     1     2   ar
    16     3     5   ar
    17    12    13    2
    18    16    17   ar
    19    18    19   ar
    20     8     9    1
    21    14    15    1
@<TRIPOS>MOLECULE
MolPort-009-751-414 62023056 CSSS03437054427 MCULE-8813905927 PubChem-52907960 ZINC000062023056 ZINC62023056
 20 21 0 0 0
SMALL
GASTEIGER

@<TRIPOS>ATOM
      1 C           8.5204   43.5900    9.1722 C.ar    1  UNL1        0.1783
      2 C           8.9934   44.4142   10.1760 C.ar    1  UNL1        0.2065
      3 C          10.4301   42.9210    9.7234 C.ar    1  UNL1        0.2955
      4 O          10.1841   43.9603   10.4875 O.2     1  UNL1       -0.4202
      5 N           9.4250   42.6373    8.8761 N.ar    1  UNL1       -0.1896
      6 C           7.2192   43.7150    8.5063 C.2     1  UNL1        0.2890
      7 O           7.1600   44.0419    7.2904 O.2     1  UNL1       -0.2663
      8 N           6.0177   43.4664    9.2389 N.am    1  UNL1       -0.1883
      9 H           6.0757   43.2217   10.1908 H       1  UNL1        0.1829
     10 C           3.9135   42.9904    9.5670 C.3     1  UNL1        0.2055
     11 O           4.8002   43.5602    8.6513 O.3     1  UNL1       -0.2633
     12 C          11.7600   40.8768   10.4034 C.2     1  UNL1        0.2875
     13 O          10.7688   40.3411   10.9683 O.2     1  UNL1       -0.2663
     14 N          11.6377   42.1567    9.7727 N.am    1  UNL1       -0.2330
     15 H          12.4389   42.5359    9.3442 H       1  UNL1        0.1596
     16 C          13.0497   40.1788   10.3944 C.ar    1  UNL1        0.1989
     17 C          13.9341   40.1435    9.3371 C.ar    1  UNL1        0.0455
     18 C          14.9939   39.3763    9.7884 C.ar    1  UNL1        0.0440
     19 C          14.6853   38.9978   11.0840 C.ar    1  UNL1        0.1798
     20 O          13.5170   39.4966   11.4088 O.2     1  UNL1       -0.4458
@<TRIPOS>BOND
     1    10    11    1
     2     6     1    1
     3     1     5   ar
     4     2     4   ar
     5     3     4   ar
     6     3    14    1
     7    12    16    1
     8    16    20   ar
     9    17    18   ar
    10    19    20   ar
    11     8    11    1
    12     8     6   am
    13    14    12   am
    14     6     7    2
    15     1     2   ar
    16     3     5   ar
    17    12    13    2
    18    16    17   ar
    19    18    19   ar
    20     8     9    1
    21    14    15    1
@<TRIPOS>MOLECULE
MolPort-009-751-414 62023056 CSSS03437054427 MCULE-8813905927 PubChem-52907960 ZINC000062023056 ZINC62023056
 20 21 0 0 0
SMALL
GASTEIGER

@<TRIPOS>ATOM
      1 C          12.6678   41.4986    7.4388 C.ar    1  UNL1        0.1783
      2 C          12.0156   41.6587    6.2307 C.ar    1  UNL1        0.2065
      3 C          10.6094   41.2722    7.7708 C.ar    1  UNL1        0.2955
      4 O          10.7375   41.5095    6.4856 O.2     1  UNL1       -0.4202
      5 N          11.7843   41.2526    8.4250 N.ar    1  UNL1       -0.1896
      6 C          14.1180   41.5809    7.6443 C.2     1  UNL1        0.2890
      7 O          14.8225   42.3096    6.8951 O.2     1  UNL1       -0.2663
      8 N          14.7317   40.8322    8.6956 N.am    1  UNL1       -0.1883
      9 H          14.1729   40.2584    9.2682 H       1  UNL1        0.1829
     10 C          16.3170   39.9098    9.8779 C.3     1  UNL1        0.2055
     11 O          16.0665   40.8953    8.9212 O.3     1  UNL1       -0.2633
     12 C           8.6297   42.0632    9.1363 C.2     1  UNL1        0.2875
     13 O           9.0769   43.2385    9.2218 O.2     1  UNL1       -0.2663
     14 N           9.3570   41.0547    8.4257 N.am    1  UNL1       -0.2330
     15 H           8.9686   40.1510    8.3855 H       1  UNL1        0.1596
     16 C           7.3512   41.7296    9.7724 C.ar    1  UNL1        0.1989
     17 C           7.1376   41.6145   11.1298 C.ar    1  UNL1        0.0455
     18 C           5.7975   41.2905   11.2504 C.ar    1  UNL1        0.0440
     19 C           5.2873   41.2305    9.9646 C.ar    1  UNL1        0.1798
     20 O           6.2457   41.4985    9.1110 O.2     1  UNL1       -0.4458
@<TRIPOS>BOND
     1    10    11    1
     2     6     1    1
     3     1     5   ar
     4     2     4   ar
     5     3     4   ar
     6     3    14    1
     7    12    16    1
     8    16    20   ar
     9    17    18   ar
    10    19    20   ar
    11     8    11    1
    12     8     6   am
    13    14    12   am
    14     6     7    2
    15     1     2   ar
    16     3     5   ar
    17    12    13    2
    18    16    17   ar
    19    18    19   ar
    20     8     9    1
    21    14    15    1
@<TRIPOS>MOLECULE
MolPort-009-751-414 62023056 CSSS03437054427 MCULE-8813905927 PubChem-52907960 ZINC000062023056 ZINC62023056
 20 21 0 0 0
SMALL
GASTEIGER

@<TRIPOS>ATOM
      1 C           8.3906   40.5951    6.1020 C.ar    1  UNL1        0.1783
      2 C           9.0765   39.6873    5.3171 C.ar    1  UNL1        0.2065
      3 C          10.2834   41.3933    5.6797 C.ar    1  UNL1        0.2955
      4 O          10.2486   40.2261    5.0790 O.2     1  UNL1       -0.4202
      5 N           9.1477   41.6832    6.3391 N.ar    1  UNL1       -0.1896
      6 C           7.0283   40.4207    6.6176 C.2     1  UNL1        0.2890
      7 O           6.2097   39.6837    6.0049 O.2     1  UNL1       -0.2663
      8 N           6.6298   41.0891    7.8163 N.am    1  UNL1       -0.1883
      9 H           7.2744   41.6704    8.2809 H       1  UNL1        0.1829
     10 C           5.5188   41.2070    9.6907 C.3     1  UNL1        0.2055
     11 O           5.3834   40.9398    8.3271 O.3     1  UNL1       -0.2633
     12 C          12.6257   42.0658    6.3661 C.2     1  UNL1        0.2875
     13 O          12.7750   41.0455    7.0908 O.2     1  UNL1       -0.2663
     14 N          11.4055   42.2792    5.6475 N.am    1  UNL1       -0.2330
     15 H          11.3343   43.0903    5.0941 H       1  UNL1        0.1596
     16 C          13.7152   43.0418    6.2607 C.ar    1  UNL1        0.1989
     17 C          14.9702   42.9044    6.8150 C.ar    1  UNL1        0.0455
     18 C          15.6438   44.0586    6.4549 C.ar    1  UNL1        0.0440
     19 C          14.7581   44.8176    5.7089 C.ar    1  UNL1        0.1798
     20 O          13.6182   44.1764    5.6157 O.2     1  UNL1       -0.4458
@<TRIPOS>BOND
     1    10    11    1
     2     6     1    1
     3     1     5   ar
     4     2     4   ar
     5     3     4   ar
     6     3    14    1
     7    12    16    1
     8    16    20   ar
     9    17    18   ar
    10    19    20   ar
    11     8    11    1
    12     8     6   am
    13    14    12   am
    14     6     7    2
    15     1     2   ar
    16     3     5   ar
    17    12    13    2
    18    16    17   ar
    19    18    19   ar
    20     8     9    1
    21    14    15    1
@<TRIPOS>MOLECULE
MolPort-009-751-414 62023056 CSSS03437054427 MCULE-8813905927 PubChem-52907960 ZINC000062023056 ZINC62023056
 20 21 0 0 0
SMALL
GASTEIGER

@<TRIPOS>ATOM
      1 C          15.9922   38.6333   10.4642 C.ar    1  UNL1        0.1783
      2 C          17.1662   39.1620   10.9668 C.ar    1  UNL1        0.2065
      3 C          16.4040   40.4119    9.4321 C.ar    1  UNL1        0.2955
      4 O          17.3832   40.2677   10.2951 O.2     1  UNL1       -0.4202
      5 N          15.4984   39.4191    9.4883 N.ar    1  UNL1       -0.1896
      6 C          15.3527   37.3920   10.9141 C.2     1  UNL1        0.2890
      7 O          15.5377   36.9753   12.0893 O.2     1  UNL1       -0.2663
      8 N          14.5197   36.6546   10.0171 N.am    1  UNL1       -0.1883
      9 H          14.3906   36.9842    9.0985 H       1  UNL1        0.1829
     10 C          12.5413   35.8164   10.3979 C.3     1  UNL1        0.2055
     11 O          13.9037   35.5112   10.4042 O.3     1  UNL1       -0.2633
     12 C          15.0744   41.9180    7.8914 C.2     1  UNL1        0.2875
     13 O          13.9949   41.3108    8.1250 O.2     1  UNL1       -0.2663
     14 N          16.2945   41.5062    8.5181 N.am    1  UNL1       -0.2330
     15 H          17.1129   42.0104    8.3054 H       1  UNL1        0.1596
     16 C          15.0764   43.0571    6.9679 C.ar    1  UNL1        0.1989
     17 C          14.1878   43.2495    5.9311 C.ar    1  UNL1        0.0455
     18 C          14.5780   44.4426    5.3481 C.ar    1  UNL1        0.0440
     19 C          15.6726   44.8945    6.0657 C.ar    1  UNL1        0.1798
     20 O          15.9388   44.0399    7.0238 O.2     1  UNL1       -0.4458
@<TRIPOS>BOND
     1    10    11    1
     2     6     1    1
     3     1     5   ar
     4     2     4   ar
     5     3     4   ar
     6     3    14    1
     7    12    16    1
     8    16    20   ar
     9    17    18   ar
    10    19    20   ar
    11     8    11    1
    12     8     6   am
    13    14    12   am
    14     6     7    2
    15     1     2   ar
    16     3     5   ar
    17    12    13    2
    18    16    17   ar
    19    18    19   ar
    20     8     9    1
    21    14    15    1
@<TRIPOS>MOLECULE
MolPort-009-751-414 62023056 CSSS03437054427 MCULE-8813905927 PubChem-52907960 ZINC000062023056 ZINC62023056
 20 21 0 0 0
SMALL
GASTEIGER

@<TRIPOS>ATOM
      1 C          11.5129   38.9379    8.8302 C.ar    1  UNL1        0.1783
      2 C          10.3166   39.4959    8.4204 C.ar    1  UNL1        0.2065
      3 C          11.9359   40.7303    7.8270 C.ar    1  UNL1        0.2955
      4 O          10.6287   40.6093    7.8009 O.2     1  UNL1       -0.4202
      5 N          12.5492   39.7136    8.4586 N.ar    1  UNL1       -0.1896
      6 C          11.6599   37.6781    9.5675 C.2     1  UNL1        0.2890
      7 O          10.6462   36.9753    9.8270 O.2     1  UNL1       -0.2663
      8 N          12.9551   37.2488    9.9923 N.am    1  UNL1       -0.1883
      9 H          13.7384   37.8109    9.7929 H       1  UNL1        0.1829
     10 C          13.4975   35.1572    9.6876 C.3     1  UNL1        0.2055
     11 O          13.1280   36.0844   10.6638 O.3     1  UNL1       -0.2633
     12 C          14.0365   42.1023    7.4878 C.2     1  UNL1        0.2875
     13 O          14.7173   41.3662    8.2515 O.2     1  UNL1       -0.2663
     14 N          12.6522   41.8243    7.2481 N.am    1  UNL1       -0.2330
     15 H          12.1607   42.4268    6.6443 H       1  UNL1        0.1596
     16 C          14.6725   43.2541    6.8402 C.ar    1  UNL1        0.1989
     17 C          16.0130   43.5704    6.9051 C.ar    1  UNL1        0.0455
     18 C          16.1409   44.7238    6.1508 C.ar    1  UNL1        0.0440
     19 C          14.8757   45.0308    5.6793 C.ar    1  UNL1        0.1798
     20 O          14.0272   44.1300    6.1127 O.2     1  UNL1       -0.4458
@<TRIPOS>BOND
     1    10    11    1
     2     6     1    1
     3     1     5   ar
     4     2     4   ar
     5     3     4   ar
     6     3    14    1
     7    12    16    1
     8    16    20   ar
     9    17    18   ar
    10    19    20   ar
    11     8    11    1
    12     8     6   am
    13    14    12   am
    14     6     7    2
    15     1     2   ar
    16     3     5   ar
    17    12    13    2
    18    16    17   ar
    19    18    19   ar
    20     8     9    1
    21    14    15    1
@<TRIPOS>MOLECULE
MolPort-009-751-414 62023056 CSSS03437054427 MCULE-8813905927 PubChem-52907960 ZINC000062023056 ZINC62023056
 20 21 0 0 0
SMALL
GASTEIGER

@<TRIPOS>ATOM
      1 C          14.1844   38.1618   10.1352 C.ar    1  UNL1        0.1783
      2 C          13.7711   39.0203   11.1366 C.ar    1  UNL1        0.2065
      3 C          14.1028   40.1017    9.3424 C.ar    1  UNL1        0.2955
      4 O          13.7349   40.2158   10.5977 O.2     1  UNL1       -0.4202
      5 N          14.3981   38.8378    8.9902 N.ar    1  UNL1       -0.1896
      6 C          14.3711   36.7134   10.2746 C.2     1  UNL1        0.2890
      7 O          14.3716   36.1831   11.4181 O.2     1  UNL1       -0.2663
      8 N          14.5535   35.9038    9.1112 N.am    1  UNL1       -0.1883
      9 H          14.5615   36.3303    8.2239 H       1  UNL1        0.1829
     10 C          15.8349   34.2793    8.4179 C.3     1  UNL1        0.2055
     11 O          14.7157   34.5615    9.2034 O.3     1  UNL1       -0.2633
     12 C          15.4064   41.8492    8.0553 C.2     1  UNL1        0.2875
     13 O          16.5092   41.4720    8.5350 O.2     1  UNL1       -0.2663
     14 N          14.1866   41.1979    8.4279 N.am    1  UNL1       -0.2330
     15 H          13.3495   41.5269    8.0276 H       1  UNL1        0.1596
     16 C          15.3767   42.9667    7.1062 C.ar    1  UNL1        0.1989
     17 C          16.2053   44.0683    7.1395 C.ar    1  UNL1        0.0455
     18 C          15.8103   44.8404    6.0609 C.ar    1  UNL1        0.0440
     19 C          14.7727   44.1603    5.4460 C.ar    1  UNL1        0.1798
     20 O          14.5439   43.0470    6.0997 O.2     1  UNL1       -0.4458
@<TRIPOS>BOND
     1    10    11    1
     2     6     1    1
     3     1     5   ar
     4     2     4   ar
     5     3     4   ar
     6     3    14    1
     7    12    16    1
     8    16    20   ar
     9    17    18   ar
    10    19    20   ar
    11     8    11    1
    12     8     6   am
    13    14    12   am
    14     6     7    2
    15     1     2   ar
    16     3     5   ar
    17    12    13    2
    18    16    17   ar
    19    18    19   ar
    20     8     9    1
    21    14    15    1
