@<TRIPOS>MOLECULE
MolPort-007-710-792 ChemDiv-D481-2666 MCULE-2167951705 PubChem-46269945 ZINC000033019594 ZINC33019594
 34 37 0 0 0
SMALL
GASTEIGER

@<TRIPOS>ATOM
      1 C           9.2873   42.2542    9.2971 C.ar    1  UNL1        0.1706
      2 C          11.0861   41.7165    8.3168 C.ar    1  UNL1        0.1975
      3 N          10.2687   43.0332    9.7979 N.ar    1  UNL1       -0.1279
      4 N          11.3943   42.6950    9.1864 N.ar    1  UNL1       -0.1218
      5 N           9.7726   41.4135    8.3526 N.ar    1  UNL1       -0.2690
      6 C           5.1602   42.6032   10.4396 C.ar    1  UNL1        0.0503
      7 C           5.6648   43.3251    9.3474 C.ar    1  UNL1        0.0148
      8 C           7.0105   43.2114    8.9875 C.ar    1  UNL1        0.0043
      9 C           7.8740   42.3819    9.7160 C.ar    1  UNL1        0.0364
     10 C           7.3597   41.6452   10.7912 C.ar    1  UNL1        0.0043
     11 C           6.0153   41.7604   11.1542 C.ar    1  UNL1        0.0148
     12 C           1.6343   42.0047   11.9523 C.3     1  UNL1        0.0949
     13 C           3.0888   41.8046   11.7196 C.2     1  UNL1        0.2266
     14 O           3.6865   40.8640   12.3088 O.2     1  UNL1       -0.2748
     15 N           3.7876   42.6984   10.8436 N.am    1  UNL1       -0.2839
     16 H           3.2723   43.4554   10.4822 H       1  UNL1        0.1549
     17 C           9.1143   40.3486    7.6505 C.ar    1  UNL1        0.0672
     18 C           9.4921   39.0168    7.8720 C.ar    1  UNL1        0.0176
     19 C           8.8301   37.9780    7.2112 C.ar    1  UNL1        0.0015
     20 C           7.7827   38.2657    6.3315 C.ar    1  UNL1        0.0001
     21 C           7.3949   39.5913    6.1141 C.ar    1  UNL1        0.0015
     22 C           8.0568   40.6302    6.7740 C.ar    1  UNL1        0.0176
     23 S          12.3049   40.8836    7.2977 S.3     1  UNL1       -0.0655
     24 C          12.3174   42.2204    6.0642 C.3     1  UNL1        0.1501
     25 C          13.5900   42.9912    6.1391 C.2     1  UNL1        0.2376
     26 O          13.6743   44.1170    5.5771 O.2     1  UNL1       -0.2738
     27 N          14.6922   42.4434    6.8738 N.am    1  UNL1       -0.2832
     28 H          14.5474   41.5672    7.2986 H       1  UNL1        0.1549
     29 C          15.9840   43.0398    7.0541 C.ar    1  UNL1        0.0503
     30 C          16.5832   43.8328    6.0615 C.ar    1  UNL1        0.0147
     31 C          17.8463   44.3942    6.2717 C.ar    1  UNL1        0.0013
     32 C          18.5203   44.1653    7.4748 C.ar    1  UNL1        0.0001
     33 C          17.9309   43.3755    8.4662 C.ar    1  UNL1        0.0013
     34 C          16.6670   42.8152    8.2549 C.ar    1  UNL1        0.0147
@<TRIPOS>BOND
     1    12    13    1
     2    13    15   am
     3     7     8   ar
     4     9    10   ar
     5     9     1    1
     6    11     6   ar
     7     2    23    1
     8     2     5   ar
     9    24    23    1
    10    24    25    1
    11    25    27   am
    12    30    31   ar
    13    32    33   ar
    14    34    29   ar
    15    18    19   ar
    16    20    21   ar
    17    22    17   ar
    18    15     6    1
    19     3     4   ar
    20    27    29    1
    21     5    17    1
    22     5     1   ar
    23    13    14    2
    24     6     7   ar
    25     8     9   ar
    26    10    11   ar
    27     1     3   ar
    28     2     4   ar
    29    25    26    2
    30    29    30   ar
    31    31    32   ar
    32    33    34   ar
    33    17    18   ar
    34    19    20   ar
    35    21    22   ar
    36    15    16    1
    37    27    28    1
@<TRIPOS>MOLECULE
MolPort-007-710-792 ChemDiv-D481-2666 MCULE-2167951705 PubChem-46269945 ZINC000033019594 ZINC33019594
 34 37 0 0 0
SMALL
GASTEIGER

@<TRIPOS>ATOM
      1 C           6.4678   41.0488    7.9138 C.ar    1  UNL1        0.1706
      2 C           8.0846   41.1746    6.5516 C.ar    1  UNL1        0.1975
      3 N           6.1597   40.2792    6.8491 N.ar    1  UNL1       -0.1279
      4 N           7.1700   40.3600    5.9959 N.ar    1  UNL1       -0.1218
      5 N           7.6835   41.6249    7.7576 N.ar    1  UNL1       -0.2690
      6 C           3.8755   41.3198   11.3295 C.ar    1  UNL1        0.0503
      7 C           3.3506   41.0963   10.0477 C.ar    1  UNL1        0.0148
      8 C           4.2007   41.0172    8.9410 C.ar    1  UNL1        0.0043
      9 C           5.5856   41.1672    9.0958 C.ar    1  UNL1        0.0364
     10 C           6.1065   41.3668   10.3811 C.ar    1  UNL1        0.0043
     11 C           5.2576   41.4494   11.4879 C.ar    1  UNL1        0.0148
     12 C           1.0628   42.1327   13.8802 C.3     1  UNL1        0.0949
     13 C           1.7521   42.0473   12.5660 C.2     1  UNL1        0.2266
     14 O           1.1902   42.5175   11.5403 O.2     1  UNL1       -0.2748
     15 N           3.0356   41.4137   12.4880 N.am    1  UNL1       -0.2839
     16 H           3.3752   41.0007   13.3145 H       1  UNL1        0.1549
     17 C           8.3478   42.5963    8.5794 C.ar    1  UNL1        0.0672
     18 C           9.4796   42.2362    9.3241 C.ar    1  UNL1        0.0176
     19 C          10.1446   43.1900   10.1001 C.ar    1  UNL1        0.0015
     20 C           9.6849   44.5097   10.1295 C.ar    1  UNL1        0.0001
     21 C           8.5626   44.8770    9.3811 C.ar    1  UNL1        0.0015
     22 C           7.8971   43.9238    8.6056 C.ar    1  UNL1        0.0176
     23 S           9.6107   41.6455    5.7349 S.3     1  UNL1       -0.0655
     24 C          10.5854   40.4128    6.6510 C.3     1  UNL1        0.1501
     25 C          11.9602   40.9223    6.9151 C.2     1  UNL1        0.2376
     26 O          12.7267   40.2847    7.6873 O.2     1  UNL1       -0.2738
     27 N          12.3940   42.1225    6.2624 N.am    1  UNL1       -0.2832
     28 H          11.7462   42.5570    5.6618 H       1  UNL1        0.1549
     29 C          13.6740   42.7559    6.3939 C.ar    1  UNL1        0.0503
     30 C          14.0012   43.9268    5.6901 C.ar    1  UNL1        0.0147
     31 C          15.2613   44.5135    5.8406 C.ar    1  UNL1        0.0013
     32 C          16.2040   43.9330    6.6942 C.ar    1  UNL1        0.0001
     33 C          15.8859   42.7668    7.3961 C.ar    1  UNL1        0.0013
     34 C          14.6247   42.1814    7.2453 C.ar    1  UNL1        0.0147
@<TRIPOS>BOND
     1    12    13    1
     2    13    15   am
     3     7     8   ar
     4     9    10   ar
     5     9     1    1
     6    11     6   ar
     7     2    23    1
     8     2     5   ar
     9    24    23    1
    10    24    25    1
    11    25    27   am
    12    30    31   ar
    13    32    33   ar
    14    34    29   ar
    15    18    19   ar
    16    20    21   ar
    17    22    17   ar
    18    15     6    1
    19     3     4   ar
    20    27    29    1
    21     5    17    1
    22     5     1   ar
    23    13    14    2
    24     6     7   ar
    25     8     9   ar
    26    10    11   ar
    27     1     3   ar
    28     2     4   ar
    29    25    26    2
    30    29    30   ar
    31    31    32   ar
    32    33    34   ar
    33    17    18   ar
    34    19    20   ar
    35    21    22   ar
    36    15    16    1
    37    27    28    1
@<TRIPOS>MOLECULE
MolPort-007-710-792 ChemDiv-D481-2666 MCULE-2167951705 PubChem-46269945 ZINC000033019594 ZINC33019594
 34 37 0 0 0
SMALL
GASTEIGER

@<TRIPOS>ATOM
      1 C          15.4449   38.1979    9.4035 C.ar    1  UNL1        0.1706
      2 C          14.1273   39.6792   10.1486 C.ar    1  UNL1        0.1975
      3 N          16.0446   39.3945    9.2328 N.ar    1  UNL1       -0.1279
      4 N          15.2192   40.3214    9.6966 N.ar    1  UNL1       -0.1218
      5 N          14.2313   38.3446    9.9865 N.ar    1  UNL1       -0.2690
      6 C          17.3305   34.5083    8.2671 C.ar    1  UNL1        0.0503
      7 C          16.1001   34.8858    7.7084 C.ar    1  UNL1        0.0148
      8 C          15.4901   36.0841    8.0896 C.ar    1  UNL1        0.0043
      9 C          16.0948   36.9196    9.0388 C.ar    1  UNL1        0.0364
     10 C          17.3347   36.5492    9.5760 C.ar    1  UNL1        0.0043
     11 C          17.9441   35.3499    9.1983 C.ar    1  UNL1        0.0148
     12 C          18.5263   30.8248    7.9836 C.3     1  UNL1        0.0949
     13 C          17.6767   31.9725    8.3967 C.2     1  UNL1        0.2266
     14 O          16.6912   31.7715    9.1567 O.2     1  UNL1       -0.2748
     15 N          17.9842   33.2839    7.9065 N.am    1  UNL1       -0.2839
     16 H          18.7195   33.3509    7.2554 H       1  UNL1        0.1549
     17 C          13.2165   37.3633   10.2460 C.ar    1  UNL1        0.0672
     18 C          13.5038   36.2420   11.0370 C.ar    1  UNL1        0.0176
     19 C          12.5069   35.3024   11.3150 C.ar    1  UNL1        0.0015
     20 C          11.2164   35.4833   10.8092 C.ar    1  UNL1        0.0001
     21 C          10.9214   36.6046   10.0280 C.ar    1  UNL1        0.0015
     22 C          11.9178   37.5440    9.7493 C.ar    1  UNL1        0.0176
     23 S          12.6921   40.5243   10.8145 S.3     1  UNL1       -0.0655
     24 C          11.9654   40.7772    9.1663 C.3     1  UNL1        0.1501
     25 C          12.6323   41.9114    8.4675 C.2     1  UNL1        0.2376
     26 O          12.1599   43.0760    8.5720 O.2     1  UNL1       -0.2738
     27 N          13.8189   41.6568    7.7049 N.am    1  UNL1       -0.2832
     28 H          14.1372   40.7254    7.6816 H       1  UNL1        0.1549
     29 C          14.5906   42.6184    6.9722 C.ar    1  UNL1        0.0503
     30 C          15.8840   42.9947    7.3707 C.ar    1  UNL1        0.0147
     31 C          16.6045   43.9390    6.6333 C.ar    1  UNL1        0.0013
     32 C          16.0366   44.5154    5.4933 C.ar    1  UNL1        0.0001
     33 C          14.7493   44.1471    5.0920 C.ar    1  UNL1        0.0013
     34 C          14.0299   43.2017    5.8302 C.ar    1  UNL1        0.0147
@<TRIPOS>BOND
     1    12    13    1
     2    13    15   am
     3     7     8   ar
     4     9    10   ar
     5     9     1    1
     6    11     6   ar
     7     2    23    1
     8     2     5   ar
     9    24    23    1
    10    24    25    1
    11    25    27   am
    12    30    31   ar
    13    32    33   ar
    14    34    29   ar
    15    18    19   ar
    16    20    21   ar
    17    22    17   ar
    18    15     6    1
    19     3     4   ar
    20    27    29    1
    21     5    17    1
    22     5     1   ar
    23    13    14    2
    24     6     7   ar
    25     8     9   ar
    26    10    11   ar
    27     1     3   ar
    28     2     4   ar
    29    25    26    2
    30    29    30   ar
    31    31    32   ar
    32    33    34   ar
    33    17    18   ar
    34    19    20   ar
    35    21    22   ar
    36    15    16    1
    37    27    28    1
@<TRIPOS>MOLECULE
MolPort-007-710-792 ChemDiv-D481-2666 MCULE-2167951705 PubChem-46269945 ZINC000033019594 ZINC33019594
 34 37 0 0 0
SMALL
GASTEIGER

@<TRIPOS>ATOM
      1 C          15.3432   41.0149    8.7509 C.ar    1  UNL1        0.1706
      2 C          17.0320   40.1834    9.7216 C.ar    1  UNL1        0.1975
      3 N          16.3763   41.8618    8.5602 N.ar    1  UNL1       -0.1279
      4 N          17.4321   41.3428    9.1696 N.ar    1  UNL1       -0.1218
      5 N          15.7284   39.9393    9.4782 N.ar    1  UNL1       -0.2690
      6 C          11.4725   41.6556    6.9996 C.ar    1  UNL1        0.0503
      7 C          12.6321   42.1295    6.3676 C.ar    1  UNL1        0.0148
      8 C          13.8866   41.9233    6.9484 C.ar    1  UNL1        0.0043
      9 C          14.0020   41.2480    8.1711 C.ar    1  UNL1        0.0364
     10 C          12.8430   40.7564    8.7862 C.ar    1  UNL1        0.0043
     11 C          11.5880   40.9647    8.2084 C.ar    1  UNL1        0.0148
     12 C           7.6850   42.2814    6.4148 C.3     1  UNL1        0.0949
     13 C           8.9758   42.2135    7.1489 C.2     1  UNL1        0.2266
     14 O           9.0042   42.4899    8.3785 O.2     1  UNL1       -0.2748
     15 N          10.1676   41.8532    6.4387 N.am    1  UNL1       -0.2839
     16 H          10.0815   41.7287    5.4659 H       1  UNL1        0.1549
     17 C          14.9401   38.8621   10.0059 C.ar    1  UNL1        0.0672
     18 C          14.4678   38.9126   11.3249 C.ar    1  UNL1        0.0176
     19 C          13.6743   37.8779   11.8287 C.ar    1  UNL1        0.0015
     20 C          13.3437   36.7915   11.0138 C.ar    1  UNL1        0.0001
     21 C          13.8035   36.7404    9.6944 C.ar    1  UNL1        0.0015
     22 C          14.5973   37.7743    9.1904 C.ar    1  UNL1        0.0176
     23 S          18.1034   39.1438   10.7161 S.3     1  UNL1       -0.0655
     24 C          18.4743   38.0379    9.3203 C.3     1  UNL1        0.1501
     25 C          17.9693   36.6630    9.5920 C.2     1  UNL1        0.2376
     26 O          17.7653   36.2943   10.7807 O.2     1  UNL1       -0.2738
     27 N          17.7016   35.7899    8.4872 N.am    1  UNL1       -0.2832
     28 H          17.8702   36.1522    7.5875 H       1  UNL1        0.1549
     29 C          17.2136   34.4430    8.5568 C.ar    1  UNL1        0.0503
     30 C          15.8813   34.1171    8.2536 C.ar    1  UNL1        0.0147
     31 C          15.4406   32.7929    8.3368 C.ar    1  UNL1        0.0013
     32 C          16.3281   31.7852    8.7257 C.ar    1  UNL1        0.0001
     33 C          17.6548   32.1026    9.0308 C.ar    1  UNL1        0.0013
     34 C          18.0945   33.4276    8.9462 C.ar    1  UNL1        0.0147
@<TRIPOS>BOND
     1    12    13    1
     2    13    15   am
     3     7     8   ar
     4     9    10   ar
     5     9     1    1
     6    11     6   ar
     7     2    23    1
     8     2     5   ar
     9    24    23    1
    10    24    25    1
    11    25    27   am
    12    30    31   ar
    13    32    33   ar
    14    34    29   ar
    15    18    19   ar
    16    20    21   ar
    17    22    17   ar
    18    15     6    1
    19     3     4   ar
    20    27    29    1
    21     5    17    1
    22     5     1   ar
    23    13    14    2
    24     6     7   ar
    25     8     9   ar
    26    10    11   ar
    27     1     3   ar
    28     2     4   ar
    29    25    26    2
    30    29    30   ar
    31    31    32   ar
    32    33    34   ar
    33    17    18   ar
    34    19    20   ar
    35    21    22   ar
    36    15    16    1
    37    27    28    1
@<TRIPOS>MOLECULE
MolPort-007-710-792 ChemDiv-D481-2666 MCULE-2167951705 PubChem-46269945 ZINC000033019594 ZINC33019594
 34 37 0 0 0
SMALL
GASTEIGER

@<TRIPOS>ATOM
      1 C           9.3797   42.7889    9.1134 C.ar    1  UNL1        0.1706
      2 C           7.7659   43.5262    7.9570 C.ar    1  UNL1        0.1975
      3 N           9.0087   43.9719    9.6458 N.ar    1  UNL1       -0.1279
      4 N           8.0008   44.4343    8.9208 N.ar    1  UNL1       -0.1218
      5 N           8.6075   42.4764    8.0456 N.ar    1  UNL1       -0.2690
      6 C          12.4528   40.3042   10.7995 C.ar    1  UNL1        0.0503
      7 C          11.2317   40.4855   11.4665 C.ar    1  UNL1        0.0148
      8 C          10.2406   41.3017   10.9144 C.ar    1  UNL1        0.0043
      9 C          10.4556   41.9546    9.6929 C.ar    1  UNL1        0.0364
     10 C          11.6675   41.7514    9.0197 C.ar    1  UNL1        0.0043
     11 C          12.6606   40.9383    9.5721 C.ar    1  UNL1        0.0148
     12 C          15.7549   38.3714   11.4617 C.3     1  UNL1        0.0949
     13 C          14.8311   39.3505   10.8313 C.2     1  UNL1        0.2266
     14 O          15.2413   40.0618    9.8748 O.2     1  UNL1       -0.2748
     15 N          13.4962   39.4802   11.3369 N.am    1  UNL1       -0.2839
     16 H          13.2726   38.9490   12.1351 H       1  UNL1        0.1549
     17 C           8.7222   41.3834    7.1223 C.ar    1  UNL1        0.0672
     18 C           9.6176   41.4587    6.0461 C.ar    1  UNL1        0.0176
     19 C           9.7515   40.3818    5.1650 C.ar    1  UNL1        0.0015
     20 C           8.9959   39.2222    5.3600 C.ar    1  UNL1        0.0001
     21 C           8.1087   39.1374    6.4372 C.ar    1  UNL1        0.0015
     22 C           7.9740   40.2139    7.3181 C.ar    1  UNL1        0.0176
     23 S           6.5263   43.7438    6.6788 S.3     1  UNL1       -0.0655
     24 C           5.5462   44.8867    7.6995 C.3     1  UNL1        0.1501
     25 C           4.6264   44.1321    8.5960 C.2     1  UNL1        0.2376
     26 O           3.3956   44.4069    8.6052 O.2     1  UNL1       -0.2738
     27 N           5.1600   43.0860    9.4179 N.am    1  UNL1       -0.2832
     28 H           6.1275   42.9182    9.3459 H       1  UNL1        0.1549
     29 C           4.4305   42.2583   10.3342 C.ar    1  UNL1        0.0503
     30 C           3.3186   42.7370   11.0469 C.ar    1  UNL1        0.0147
     31 C           2.6348   41.9015   11.9351 C.ar    1  UNL1        0.0013
     32 C           3.0587   40.5821   12.1189 C.ar    1  UNL1        0.0001
     33 C           4.1655   40.0996   11.4146 C.ar    1  UNL1        0.0013
     34 C           4.8481   40.9363   10.5257 C.ar    1  UNL1        0.0147
@<TRIPOS>BOND
     1    12    13    1
     2    13    15   am
     3     7     8   ar
     4     9    10   ar
     5     9     1    1
     6    11     6   ar
     7     2    23    1
     8     2     5   ar
     9    24    23    1
    10    24    25    1
    11    25    27   am
    12    30    31   ar
    13    32    33   ar
    14    34    29   ar
    15    18    19   ar
    16    20    21   ar
    17    22    17   ar
    18    15     6    1
    19     3     4   ar
    20    27    29    1
    21     5    17    1
    22     5     1   ar
    23    13    14    2
    24     6     7   ar
    25     8     9   ar
    26    10    11   ar
    27     1     3   ar
    28     2     4   ar
    29    25    26    2
    30    29    30   ar
    31    31    32   ar
    32    33    34   ar
    33    17    18   ar
    34    19    20   ar
    35    21    22   ar
    36    15    16    1
    37    27    28    1
@<TRIPOS>MOLECULE
MolPort-007-710-792 ChemDiv-D481-2666 MCULE-2167951705 PubChem-46269945 ZINC000033019594 ZINC33019594
 34 37 0 0 0
SMALL
GASTEIGER

@<TRIPOS>ATOM
      1 C          15.1902   39.0820    9.3756 C.ar    1  UNL1        0.1706
      2 C          13.5126   40.3565    9.5921 C.ar    1  UNL1        0.1975
      3 N          15.5659   40.3154    8.9777 N.ar    1  UNL1       -0.1279
      4 N          14.5157   41.1120    9.1108 N.ar    1  UNL1       -0.1218
      5 N          13.8964   39.0770    9.7760 N.ar    1  UNL1       -0.2690
      6 C          17.9128   35.7583    9.3869 C.ar    1  UNL1        0.0503
      7 C          16.8063   35.7751    8.5244 C.ar    1  UNL1        0.0148
      8 C          15.9215   36.8569    8.5328 C.ar    1  UNL1        0.0043
      9 C          16.1232   37.9340    9.4067 C.ar    1  UNL1        0.0364
     10 C          17.2427   37.9230   10.2493 C.ar    1  UNL1        0.0043
     11 C          18.1263   36.8406   10.2442 C.ar    1  UNL1        0.0148
     12 C          19.6071   32.2672    9.5306 C.3     1  UNL1        0.0949
     13 C          18.5149   33.2674    9.4026 C.2     1  UNL1        0.2266
     14 O          17.3253   32.8718    9.2707 O.2     1  UNL1       -0.2748
     15 N          18.8389   34.6637    9.4123 N.am    1  UNL1       -0.2839
     16 H          19.7955   34.8950    9.4391 H       1  UNL1        0.1549
     17 C          13.0631   37.9744   10.1635 C.ar    1  UNL1        0.0672
     18 C          11.7944   37.8118    9.5895 C.ar    1  UNL1        0.0176
     19 C          10.9957   36.7208    9.9442 C.ar    1  UNL1        0.0015
     20 C          11.4648   35.7838   10.8693 C.ar    1  UNL1        0.0001
     21 C          12.7331   35.9353   11.4377 C.ar    1  UNL1        0.0015
     22 C          13.5318   37.0261   11.0838 C.ar    1  UNL1        0.0176
     23 S          11.8561   40.9830    9.8773 S.3     1  UNL1       -0.0655
     24 C          11.6378   41.4531    8.1337 C.3     1  UNL1        0.1501
     25 C          10.2244   41.8420    7.8684 C.2     1  UNL1        0.2376
     26 O           9.7579   41.7484    6.7005 O.2     1  UNL1       -0.2738
     27 N           9.4119   42.2953    8.9587 N.am    1  UNL1       -0.2832
     28 H           9.8401   42.3275    9.8446 H       1  UNL1        0.1549
     29 C           8.0396   42.7069    8.8927 C.ar    1  UNL1        0.0503
     30 C           7.6677   43.9942    8.4710 C.ar    1  UNL1        0.0147
     31 C           6.3194   44.3608    8.4237 C.ar    1  UNL1        0.0013
     32 C           5.3332   43.4441    8.7995 C.ar    1  UNL1        0.0001
     33 C           5.6961   42.1620    9.2221 C.ar    1  UNL1        0.0013
     34 C           7.0453   41.7963    9.2681 C.ar    1  UNL1        0.0147
@<TRIPOS>BOND
     1    12    13    1
     2    13    15   am
     3     7     8   ar
     4     9    10   ar
     5     9     1    1
     6    11     6   ar
     7     2    23    1
     8     2     5   ar
     9    24    23    1
    10    24    25    1
    11    25    27   am
    12    30    31   ar
    13    32    33   ar
    14    34    29   ar
    15    18    19   ar
    16    20    21   ar
    17    22    17   ar
    18    15     6    1
    19     3     4   ar
    20    27    29    1
    21     5    17    1
    22     5     1   ar
    23    13    14    2
    24     6     7   ar
    25     8     9   ar
    26    10    11   ar
    27     1     3   ar
    28     2     4   ar
    29    25    26    2
    30    29    30   ar
    31    31    32   ar
    32    33    34   ar
    33    17    18   ar
    34    19    20   ar
    35    21    22   ar
    36    15    16    1
    37    27    28    1
@<TRIPOS>MOLECULE
MolPort-007-710-792 ChemDiv-D481-2666 MCULE-2167951705 PubChem-46269945 ZINC000033019594 ZINC33019594
 34 37 0 0 0
SMALL
GASTEIGER

@<TRIPOS>ATOM
      1 C           9.8991   41.7850    8.2428 C.ar    1  UNL1        0.1706
      2 C          11.4398   40.5931    9.0743 C.ar    1  UNL1        0.1975
      3 N          10.8168   41.5784    7.2753 N.ar    1  UNL1       -0.1279
      4 N          11.7817   40.8350    7.7962 N.ar    1  UNL1       -0.1218
      5 N          10.2626   41.1686    9.3926 N.ar    1  UNL1       -0.2690
      6 C           6.3147   44.0516    7.5542 C.ar    1  UNL1        0.0503
      7 C           7.2283   44.4397    8.5458 C.ar    1  UNL1        0.0148
      8 C           8.3881   43.6920    8.7682 C.ar    1  UNL1        0.0043
      9 C           8.6497   42.5426    8.0099 C.ar    1  UNL1        0.0364
     10 C           7.7457   42.1729    7.0052 C.ar    1  UNL1        0.0043
     11 C           6.5842   42.9175    6.7841 C.ar    1  UNL1        0.0148
     12 C           2.6962   45.4606    7.5551 C.3     1  UNL1        0.0949
     13 C           3.8756   44.6847    8.0205 C.2     1  UNL1        0.2266
     14 O           3.7751   43.9622    9.0486 O.2     1  UNL1       -0.2748
     15 N           5.1109   44.7887    7.3009 N.am    1  UNL1       -0.2839
     16 H           5.1355   45.4323    6.5563 H       1  UNL1        0.1549
     17 C           9.6500   41.2173   10.6898 C.ar    1  UNL1        0.0672
     18 C          10.4435   41.2787   11.8439 C.ar    1  UNL1        0.0176
     19 C           9.8464   41.3573   13.1054 C.ar    1  UNL1        0.0015
     20 C           8.4534   41.3818   13.2182 C.ar    1  UNL1        0.0001
     21 C           7.6570   41.3308   12.0702 C.ar    1  UNL1        0.0015
     22 C           8.2534   41.2517   10.8088 C.ar    1  UNL1        0.0176
     23 S          12.4760   39.6750   10.2149 S.3     1  UNL1       -0.0655
     24 C          13.6011   39.1301    8.8936 C.3     1  UNL1        0.1501
     25 C          14.7724   40.0450    8.7917 C.2     1  UNL1        0.2376
     26 O          15.8580   39.7376    9.3553 O.2     1  UNL1       -0.2738
     27 N          14.6469   41.2527    8.0300 N.am    1  UNL1       -0.2832
     28 H          13.7741   41.4182    7.6059 H       1  UNL1        0.1549
     29 C          15.6614   42.2449    7.8218 C.ar    1  UNL1        0.0503
     30 C          15.4918   43.3043    6.9149 C.ar    1  UNL1        0.0147
     31 C          16.5052   44.2506    6.7355 C.ar    1  UNL1        0.0013
     32 C          17.6961   44.1437    7.4598 C.ar    1  UNL1        0.0001
     33 C          17.8724   43.0911    8.3625 C.ar    1  UNL1        0.0013
     34 C          16.8575   42.1456    8.5416 C.ar    1  UNL1        0.0147
@<TRIPOS>BOND
     1    12    13    1
     2    13    15   am
     3     7     8   ar
     4     9    10   ar
     5     9     1    1
     6    11     6   ar
     7     2    23    1
     8     2     5   ar
     9    24    23    1
    10    24    25    1
    11    25    27   am
    12    30    31   ar
    13    32    33   ar
    14    34    29   ar
    15    18    19   ar
    16    20    21   ar
    17    22    17   ar
    18    15     6    1
    19     3     4   ar
    20    27    29    1
    21     5    17    1
    22     5     1   ar
    23    13    14    2
    24     6     7   ar
    25     8     9   ar
    26    10    11   ar
    27     1     3   ar
    28     2     4   ar
    29    25    26    2
    30    29    30   ar
    31    31    32   ar
    32    33    34   ar
    33    17    18   ar
    34    19    20   ar
    35    21    22   ar
    36    15    16    1
    37    27    28    1
@<TRIPOS>MOLECULE
MolPort-007-710-792 ChemDiv-D481-2666 MCULE-2167951705 PubChem-46269945 ZINC000033019594 ZINC33019594
 34 37 0 0 0
SMALL
GASTEIGER

@<TRIPOS>ATOM
      1 C          11.4131   40.9960    6.0915 C.ar    1  UNL1        0.1706
      2 C           9.4333   40.2498    5.9983 C.ar    1  UNL1        0.1975
      3 N          11.1508   40.7071    4.7998 N.ar    1  UNL1       -0.1279
      4 N           9.9131   40.2379    4.7419 N.ar    1  UNL1       -0.1218
      5 N          10.3426   40.7224    6.8746 N.ar    1  UNL1       -0.2690
      6 C          15.1740   42.6409    7.3605 C.ar    1  UNL1        0.0503
      7 C          14.6477   41.4963    7.9783 C.ar    1  UNL1        0.0148
      8 C          13.4198   40.9725    7.5642 C.ar    1  UNL1        0.0043
      9 C          12.6958   41.5868    6.5332 C.ar    1  UNL1        0.0364
     10 C          13.2370   42.7157    5.9040 C.ar    1  UNL1        0.0043
     11 C          14.4629   43.2424    6.3191 C.ar    1  UNL1        0.0148
     12 C          18.6670   44.3323    7.4906 C.3     1  UNL1        0.0949
     13 C          17.3691   43.8872    6.9187 C.2     1  UNL1        0.2266
     14 O          17.1116   44.1258    5.7080 O.2     1  UNL1       -0.2748
     15 N          16.4269   43.2117    7.7616 N.am    1  UNL1       -0.2839
     16 H          16.6642   43.1314    8.7137 H       1  UNL1        0.1549
     17 C          10.2190   40.7689    8.3039 C.ar    1  UNL1        0.0672
     18 C          10.7364   39.7312    9.0919 C.ar    1  UNL1        0.0176
     19 C          10.6433   39.7917   10.4853 C.ar    1  UNL1        0.0015
     20 C          10.0387   40.8933   11.0974 C.ar    1  UNL1        0.0001
     21 C           9.5297   41.9359   10.3172 C.ar    1  UNL1        0.0015
     22 C           9.6221   41.8757    8.9241 C.ar    1  UNL1        0.0176
     23 S           7.8050   39.6382    6.4372 S.3     1  UNL1       -0.0655
     24 C           7.0141   41.2407    6.0978 C.3     1  UNL1        0.1501
     25 C           6.3454   41.7651    7.3214 C.2     1  UNL1        0.2376
     26 O           6.5476   42.9560    7.6839 O.2     1  UNL1       -0.2738
     27 N           5.4614   40.9060    8.0528 N.am    1  UNL1       -0.2832
     28 H           5.3409   39.9944    7.7011 H       1  UNL1        0.1549
     29 C           4.7345   41.2368    9.2441 C.ar    1  UNL1        0.0503
     30 C           3.3385   41.3937    9.2451 C.ar    1  UNL1        0.0147
     31 C           2.6645   41.7208   10.4255 C.ar    1  UNL1        0.0013
     32 C           3.3813   41.8954   11.6130 C.ar    1  UNL1        0.0001
     33 C           4.7707   41.7428   11.6189 C.ar    1  UNL1        0.0013
     34 C           5.4436   41.4147   10.4375 C.ar    1  UNL1        0.0147
@<TRIPOS>BOND
     1    12    13    1
     2    13    15   am
     3     7     8   ar
     4     9    10   ar
     5     9     1    1
     6    11     6   ar
     7     2    23    1
     8     2     5   ar
     9    24    23    1
    10    24    25    1
    11    25    27   am
    12    30    31   ar
    13    32    33   ar
    14    34    29   ar
    15    18    19   ar
    16    20    21   ar
    17    22    17   ar
    18    15     6    1
    19     3     4   ar
    20    27    29    1
    21     5    17    1
    22     5     1   ar
    23    13    14    2
    24     6     7   ar
    25     8     9   ar
    26    10    11   ar
    27     1     3   ar
    28     2     4   ar
    29    25    26    2
    30    29    30   ar
    31    31    32   ar
    32    33    34   ar
    33    17    18   ar
    34    19    20   ar
    35    21    22   ar
    36    15    16    1
    37    27    28    1
@<TRIPOS>MOLECULE
MolPort-007-710-792 ChemDiv-D481-2666 MCULE-2167951705 PubChem-46269945 ZINC000033019594 ZINC33019594
 34 37 0 0 0
SMALL
GASTEIGER

@<TRIPOS>ATOM
      1 C           7.8843   40.8733    7.2033 C.ar    1  UNL1        0.1706
      2 C           9.6011   40.4314    6.0445 C.ar    1  UNL1        0.1975
      3 N           7.5198   40.9258    5.9052 N.ar    1  UNL1       -0.1279
      4 N           8.5944   40.6518    5.1803 N.ar    1  UNL1       -0.1218
      5 N           9.1955   40.5568    7.3244 N.ar    1  UNL1       -0.2690
      6 C           5.1295   41.5600   10.4282 C.ar    1  UNL1        0.0503
      7 C           6.5079   41.7472   10.6113 C.ar    1  UNL1        0.0148
      8 C           7.3976   41.5140    9.5589 C.ar    1  UNL1        0.0043
      9 C           6.9261   41.0839    8.3110 C.ar    1  UNL1        0.0364
     10 C           5.5467   40.9211    8.1267 C.ar    1  UNL1        0.0043
     11 C           4.6564   41.1506    9.1789 C.ar    1  UNL1        0.0148
     12 C           1.9714   42.3387   12.5491 C.3     1  UNL1        0.0949
     13 C           2.7824   42.0338   11.3413 C.2     1  UNL1        0.2266
     14 O           2.2202   41.9848   10.2141 O.2     1  UNL1       -0.2748
     15 N           4.1862   41.7824   11.4852 N.am    1  UNL1       -0.2839
     16 H           4.5391   41.7600   12.4040 H       1  UNL1        0.1549
     17 C          10.0196   40.5056    8.4985 C.ar    1  UNL1        0.0672
     18 C          10.4525   39.2720    9.0045 C.ar    1  UNL1        0.0176
     19 C          11.2804   39.2240   10.1299 C.ar    1  UNL1        0.0015
     20 C          11.6847   40.4096   10.7501 C.ar    1  UNL1        0.0001
     21 C          11.2643   41.6432   10.2441 C.ar    1  UNL1        0.0015
     22 C          10.4362   41.6917    9.1194 C.ar    1  UNL1        0.0176
     23 S          11.2843   40.0858    5.5296 S.3     1  UNL1       -0.0655
     24 C          11.8357   41.7824    5.8848 C.3     1  UNL1        0.1501
     25 C          13.1270   41.7695    6.6276 C.2     1  UNL1        0.2376
     26 O          13.3678   40.8431    7.4487 O.2     1  UNL1       -0.2738
     27 N          14.0851   42.8050    6.3739 N.am    1  UNL1       -0.2832
     28 H          13.8336   43.4856    5.7085 H       1  UNL1        0.1549
     29 C          15.3723   42.9522    6.9891 C.ar    1  UNL1        0.0503
     30 C          15.8089   42.0987    8.0158 C.ar    1  UNL1        0.0147
     31 C          17.0691   42.2758    8.5947 C.ar    1  UNL1        0.0013
     32 C          17.9011   43.3086    8.1528 C.ar    1  UNL1        0.0001
     33 C          17.4724   44.1630    7.1329 C.ar    1  UNL1        0.0013
     34 C          16.2118   43.9841    6.5542 C.ar    1  UNL1        0.0147
@<TRIPOS>BOND
     1    12    13    1
     2    13    15   am
     3     7     8   ar
     4     9    10   ar
     5     9     1    1
     6    11     6   ar
     7     2    23    1
     8     2     5   ar
     9    24    23    1
    10    24    25    1
    11    25    27   am
    12    30    31   ar
    13    32    33   ar
    14    34    29   ar
    15    18    19   ar
    16    20    21   ar
    17    22    17   ar
    18    15     6    1
    19     3     4   ar
    20    27    29    1
    21     5    17    1
    22     5     1   ar
    23    13    14    2
    24     6     7   ar
    25     8     9   ar
    26    10    11   ar
    27     1     3   ar
    28     2     4   ar
    29    25    26    2
    30    29    30   ar
    31    31    32   ar
    32    33    34   ar
    33    17    18   ar
    34    19    20   ar
    35    21    22   ar
    36    15    16    1
    37    27    28    1
@<TRIPOS>MOLECULE
MolPort-007-710-792 ChemDiv-D481-2666 MCULE-2167951705 PubChem-46269945 ZINC000033019594 ZINC33019594
 34 37 0 0 0
SMALL
GASTEIGER

@<TRIPOS>ATOM
      1 C          10.2497   41.9323    8.4750 C.ar    1  UNL1        0.1706
      2 C           8.4678   42.3852    7.4238 C.ar    1  UNL1        0.1975
      3 N           9.6319   42.9315    9.1389 N.ar    1  UNL1       -0.1279
      4 N           8.5185   43.2165    8.4798 N.ar    1  UNL1       -0.1218
      5 N           9.5340   41.5605    7.3870 N.ar    1  UNL1       -0.2690
      6 C          13.9463   40.2253    9.8468 C.ar    1  UNL1        0.0503
      7 C          13.8994   40.9745    8.6615 C.ar    1  UNL1        0.0148
      8 C          12.6910   41.5197    8.2186 C.ar    1  UNL1        0.0043
      9 C          11.5108   41.3194    8.9476 C.ar    1  UNL1        0.0364
     10 C          11.5676   40.5903   10.1428 C.ar    1  UNL1        0.0043
     11 C          12.7743   40.0420   10.5850 C.ar    1  UNL1        0.0148
     12 C          17.6411   39.1949   10.4511 C.3     1  UNL1        0.0949
     13 C          16.4955   39.9706    9.9074 C.2     1  UNL1        0.2266
     14 O          16.7135   40.9119    9.0978 O.2     1  UNL1       -0.2748
     15 N          15.1652   39.6446   10.3301 N.am    1  UNL1       -0.2839
     16 H          15.0795   38.9509   11.0234 H       1  UNL1        0.1549
     17 C           9.8675   40.6289    6.3473 C.ar    1  UNL1        0.0672
     18 C           9.3977   39.3092    6.4038 C.ar    1  UNL1        0.0176
     19 C           9.6970   38.4107    5.3756 C.ar    1  UNL1        0.0015
     20 C          10.4615   38.8296    4.2829 C.ar    1  UNL1        0.0001
     21 C          10.9245   40.1472    4.2162 C.ar    1  UNL1        0.0015
     22 C          10.6260   41.0457    5.2442 C.ar    1  UNL1        0.0176
     23 S           7.1665   42.4372    6.1902 S.3     1  UNL1       -0.0655
     24 C           6.4852   43.9912    6.8456 C.3     1  UNL1        0.1501
     25 C           5.7182   43.7407    8.0979 C.2     1  UNL1        0.2376
     26 O           5.3502   44.7129    8.8119 O.2     1  UNL1       -0.2738
     27 N           5.3919   42.3914    8.4550 N.am    1  UNL1       -0.2832
     28 H           5.6994   41.6858    7.8411 H       1  UNL1        0.1549
     29 C           4.6639   41.9629    9.6139 C.ar    1  UNL1        0.0503
     30 C           5.2137   41.0732   10.5518 C.ar    1  UNL1        0.0147
     31 C           4.4718   40.6745   11.6677 C.ar    1  UNL1        0.0013
     32 C           3.1743   41.1606   11.8531 C.ar    1  UNL1        0.0001
     33 C           2.6201   42.0446   10.9229 C.ar    1  UNL1        0.0013
     34 C           3.3638   42.4433    9.8075 C.ar    1  UNL1        0.0147
@<TRIPOS>BOND
     1    12    13    1
     2    13    15   am
     3     7     8   ar
     4     9    10   ar
     5     9     1    1
     6    11     6   ar
     7     2    23    1
     8     2     5   ar
     9    24    23    1
    10    24    25    1
    11    25    27   am
    12    30    31   ar
    13    32    33   ar
    14    34    29   ar
    15    18    19   ar
    16    20    21   ar
    17    22    17   ar
    18    15     6    1
    19     3     4   ar
    20    27    29    1
    21     5    17    1
    22     5     1   ar
    23    13    14    2
    24     6     7   ar
    25     8     9   ar
    26    10    11   ar
    27     1     3   ar
    28     2     4   ar
    29    25    26    2
    30    29    30   ar
    31    31    32   ar
    32    33    34   ar
    33    17    18   ar
    34    19    20   ar
    35    21    22   ar
    36    15    16    1
    37    27    28    1
