@<TRIPOS>MOLECULE
MolPort-002-455-709 ChemDiv-D039-0039 MCULE-4081757879 PubChem-23605071 ZINC000006809953 ZINC06809953
 26 27 0 0 0
SMALL
GASTEIGER

@<TRIPOS>ATOM
      1 C           8.2364   41.6126    8.1961 C.ar    1  UNL1        0.0857
      2 C           8.7771   41.6025    9.4766 C.ar    1  UNL1        0.0408
      3 C           8.0261   41.7958   10.7488 C.3     1  UNL1        0.0500
      4 C          10.4177   41.2650    8.1400 C.ar    1  UNL1        0.1085
      5 C           9.3019   41.3939    7.3418 C.ar    1  UNL1        0.0153
      6 C           9.2733   41.3107    5.8530 C.3     1  UNL1        0.0342
      7 N          10.1084   41.3899    9.4464 N.ar    1  UNL1       -0.3451
      8 H          10.7228   41.3373   10.2138 H       1  UNL1        0.1668
      9 C          12.8397   41.9309    7.7670 C.2     1  UNL1        0.3092
     10 O          12.6855   43.0605    8.3065 O.2     1  UNL1       -0.2521
     11 N          11.7404   41.0233    7.6463 N.am    1  UNL1       -0.2551
     12 N          14.1129   41.5544    7.2356 N.am    1  UNL1       -0.2676
     13 H          11.9056   40.1672    7.1891 H       1  UNL1        0.1578
     14 H          14.1592   40.7399    6.6845 H       1  UNL1        0.1564
     15 C          15.3246   42.2852    7.4532 C.ar    1  UNL1        0.0578
     16 C          16.1712   41.8772    8.4900 C.ar    1  UNL1        0.0152
     17 C          17.3616   42.5621    8.7452 C.ar    1  UNL1        0.0013
     18 C          17.7075   43.6718    7.9721 C.ar    1  UNL1        0.0006
     19 C          16.8561   44.1047    6.9530 C.ar    1  UNL1        0.0079
     20 C          15.6629   43.4240    6.6892 C.ar    1  UNL1        0.0480
     21 BR         14.4969   44.1588    5.3599 Br      1  UNL1       -0.0477
     22 C           6.8222   41.8145    7.8194 C.2     1  UNL1        0.3421
     23 O           5.9942   40.8716    7.9462 O.2     1  UNL1       -0.2449
     24 O           6.4059   43.0510    7.3161 O.3     1  UNL1       -0.4454
     25 C           4.4903   44.2153    8.2144 C.3     1  UNL1        0.0513
     26 C           6.0043   44.1274    8.1555 C.3     1  UNL1        0.2089
@<TRIPOS>BOND
     1    25    26    1
     2    26    24    1
     3    22    24    1
     4    22     1    1
     5     2     7   ar
     6     3     2    1
     7     4    11    1
     8     9    12   am
     9    16    17   ar
    10    18    19   ar
    11    20    21    1
    12    20    15   ar
    13     5     1   ar
    14     6     5    1
    15     7     4   ar
    16    11     9   am
    17    12    15    1
    18    22    23    2
    19     1     2   ar
    20     4     5   ar
    21     9    10    2
    22    15    16   ar
    23    17    18   ar
    24    19    20   ar
    25     7     8    1
    26    11    13    1
    27    12    14    1
@<TRIPOS>MOLECULE
MolPort-002-455-709 ChemDiv-D039-0039 MCULE-4081757879 PubChem-23605071 ZINC000006809953 ZINC06809953
 26 27 0 0 0
SMALL
GASTEIGER

@<TRIPOS>ATOM
      1 C           8.1326   41.9724    8.6634 C.ar    1  UNL1        0.0857
      2 C           7.9500   42.4685    7.3779 C.ar    1  UNL1        0.0408
      3 C           6.7057   43.0910    6.8450 C.3     1  UNL1        0.0500
      4 C           9.9601   41.7288    7.4457 C.ar    1  UNL1        0.1085
      5 C           9.4314   41.4981    8.6970 C.ar    1  UNL1        0.0153
      6 C          10.1389   40.8611    9.8451 C.3     1  UNL1        0.0342
      7 N           9.0637   42.3221    6.6317 N.ar    1  UNL1       -0.3451
      8 H           9.1943   42.5909    5.6937 H       1  UNL1        0.1668
      9 C          12.4724   42.0989    7.4515 C.2     1  UNL1        0.3092
     10 O          12.3886   43.1362    8.1642 O.2     1  UNL1       -0.2521
     11 N          11.2957   41.3868    7.0575 N.am    1  UNL1       -0.2551
     12 N          13.7479   41.6383    6.9974 N.am    1  UNL1       -0.2676
     13 H          11.4130   40.6017    6.4752 H       1  UNL1        0.1578
     14 H          13.7649   40.9258    6.3181 H       1  UNL1        0.1564
     15 C          15.0015   42.1462    7.4665 C.ar    1  UNL1        0.0578
     16 C          15.6457   41.4700    8.5086 C.ar    1  UNL1        0.0152
     17 C          16.8677   41.9305    9.0047 C.ar    1  UNL1        0.0013
     18 C          17.4485   43.0818    8.4699 C.ar    1  UNL1        0.0006
     19 C          16.8003   43.7802    7.4487 C.ar    1  UNL1        0.0079
     20 C          15.5771   43.3256    6.9447 C.ar    1  UNL1        0.0480
     21 BR         14.6982   44.4111    5.6348 Br      1  UNL1       -0.0477
     22 C           7.1502   41.9520    9.7666 C.2     1  UNL1        0.3421
     23 O           7.5444   41.8655   10.9616 O.2     1  UNL1       -0.2449
     24 O           5.7828   42.0222    9.4821 O.3     1  UNL1       -0.4454
     25 C           4.2255   40.7691   10.8374 C.3     1  UNL1        0.0513
     26 C           4.9339   40.8805    9.4998 C.3     1  UNL1        0.2089
@<TRIPOS>BOND
     1    25    26    1
     2    26    24    1
     3    22    24    1
     4    22     1    1
     5     2     7   ar
     6     3     2    1
     7     4    11    1
     8     9    12   am
     9    16    17   ar
    10    18    19   ar
    11    20    21    1
    12    20    15   ar
    13     5     1   ar
    14     6     5    1
    15     7     4   ar
    16    11     9   am
    17    12    15    1
    18    22    23    2
    19     1     2   ar
    20     4     5   ar
    21     9    10    2
    22    15    16   ar
    23    17    18   ar
    24    19    20   ar
    25     7     8    1
    26    11    13    1
    27    12    14    1
@<TRIPOS>MOLECULE
MolPort-002-455-709 ChemDiv-D039-0039 MCULE-4081757879 PubChem-23605071 ZINC000006809953 ZINC06809953
 26 27 0 0 0
SMALL
GASTEIGER

@<TRIPOS>ATOM
      1 C          10.9313   38.6382    8.4434 C.ar    1  UNL1        0.0857
      2 C           9.9765   39.5326    7.9738 C.ar    1  UNL1        0.0408
      3 C           8.5086   39.4589    8.2177 C.3     1  UNL1        0.0500
      4 C          11.8622   40.2463    7.2478 C.ar    1  UNL1        0.1085
      5 C          12.1434   39.1072    7.9702 C.ar    1  UNL1        0.0153
      6 C          13.4955   38.5157    8.1855 C.3     1  UNL1        0.0342
      7 N          10.5411   40.5161    7.2440 N.ar    1  UNL1       -0.3451
      8 H          10.0861   41.2696    6.8030 H       1  UNL1        0.1668
      9 C          13.9171   41.7383    7.2415 C.2     1  UNL1        0.3092
     10 O          14.0303   41.7067    8.4974 O.2     1  UNL1       -0.2521
     11 N          12.8484   41.0479    6.5872 N.am    1  UNL1       -0.2551
     12 N          14.8395   42.4962    6.4542 N.am    1  UNL1       -0.2676
     13 H          12.7862   41.1300    5.6081 H       1  UNL1        0.1578
     14 H          14.6308   42.6290    5.5013 H       1  UNL1        0.1564
     15 C          16.0468   43.0743    6.9621 C.ar    1  UNL1        0.0578
     16 C          16.6084   44.1552    6.2733 C.ar    1  UNL1        0.0152
     17 C          17.7888   44.7491    6.7264 C.ar    1  UNL1        0.0013
     18 C          18.4252   44.2554    7.8665 C.ar    1  UNL1        0.0006
     19 C          17.8885   43.1591    8.5455 C.ar    1  UNL1        0.0079
     20 C          16.7060   42.5591    8.1000 C.ar    1  UNL1        0.0480
     21 BR         16.1095   40.9861    9.0145 Br      1  UNL1       -0.0477
     22 C          10.7059   37.4369    9.2732 C.2     1  UNL1        0.3421
     23 O           9.5573   37.1945    9.7345 O.2     1  UNL1       -0.2449
     24 O          11.7702   36.5734    9.5510 O.3     1  UNL1       -0.4454
     25 C          13.7094   36.3397   10.9712 C.3     1  UNL1        0.0513
     26 C          12.1960   36.2789   10.8763 C.3     1  UNL1        0.2089
@<TRIPOS>BOND
     1    25    26    1
     2    26    24    1
     3    22    24    1
     4    22     1    1
     5     2     7   ar
     6     3     2    1
     7     4    11    1
     8     9    12   am
     9    16    17   ar
    10    18    19   ar
    11    20    21    1
    12    20    15   ar
    13     5     1   ar
    14     6     5    1
    15     7     4   ar
    16    11     9   am
    17    12    15    1
    18    22    23    2
    19     1     2   ar
    20     4     5   ar
    21     9    10    2
    22    15    16   ar
    23    17    18   ar
    24    19    20   ar
    25     7     8    1
    26    11    13    1
    27    12    14    1
@<TRIPOS>MOLECULE
MolPort-002-455-709 ChemDiv-D039-0039 MCULE-4081757879 PubChem-23605071 ZINC000006809953 ZINC06809953
 26 27 0 0 0
SMALL
GASTEIGER

@<TRIPOS>ATOM
      1 C           8.9452   40.3302    6.7358 C.ar    1  UNL1        0.0857
      2 C           8.5386   41.2431    7.7020 C.ar    1  UNL1        0.0408
      3 C           7.2552   41.2090    8.4580 C.3     1  UNL1        0.0500
      4 C          10.4684   41.9012    7.0425 C.ar    1  UNL1        0.1085
      5 C          10.1903   40.7630    6.3172 C.ar    1  UNL1        0.0153
      6 C          11.0729   40.1399    5.2890 C.3     1  UNL1        0.0342
      7 N           9.4662   42.2033    7.8924 N.ar    1  UNL1       -0.3451
      8 H           9.4212   42.9622    8.5179 H       1  UNL1        0.1668
      9 C          12.9478   42.2819    7.4378 C.2     1  UNL1        0.3092
     10 O          13.0770   41.2175    8.1022 O.2     1  UNL1       -0.2521
     11 N          11.6727   42.6660    6.9150 N.am    1  UNL1       -0.2551
     12 N          14.0723   43.1398    7.2266 N.am    1  UNL1       -0.2676
     13 H          11.6189   43.5214    6.4306 H       1  UNL1        0.1578
     14 H          13.9055   44.0320    6.8451 H       1  UNL1        0.1564
     15 C          15.4249   42.7854    7.5341 C.ar    1  UNL1        0.0578
     16 C          15.6512   41.7915    8.4927 C.ar    1  UNL1        0.0152
     17 C          16.9533   41.4153    8.8310 C.ar    1  UNL1        0.0013
     18 C          18.0413   42.0426    8.2215 C.ar    1  UNL1        0.0006
     19 C          17.8271   43.0554    7.2839 C.ar    1  UNL1        0.0079
     20 C          16.5267   43.4375    6.9378 C.ar    1  UNL1        0.0480
     21 BR         16.3256   44.9178    5.7399 Br      1  UNL1       -0.0477
     22 C           8.2074   39.1451    6.2524 C.2     1  UNL1        0.3421
     23 O           7.2067   39.2886    5.4982 O.2     1  UNL1       -0.2449
     24 O           8.6174   37.8650    6.6385 O.3     1  UNL1       -0.4454
     25 C          10.4101   37.9801    8.2525 C.3     1  UNL1        0.0513
     26 C           8.9827   37.5451    7.9759 C.3     1  UNL1        0.2089
@<TRIPOS>BOND
     1    25    26    1
     2    26    24    1
     3    22    24    1
     4    22     1    1
     5     2     7   ar
     6     3     2    1
     7     4    11    1
     8     9    12   am
     9    16    17   ar
    10    18    19   ar
    11    20    21    1
    12    20    15   ar
    13     5     1   ar
    14     6     5    1
    15     7     4   ar
    16    11     9   am
    17    12    15    1
    18    22    23    2
    19     1     2   ar
    20     4     5   ar
    21     9    10    2
    22    15    16   ar
    23    17    18   ar
    24    19    20   ar
    25     7     8    1
    26    11    13    1
    27    12    14    1
@<TRIPOS>MOLECULE
MolPort-002-455-709 ChemDiv-D039-0039 MCULE-4081757879 PubChem-23605071 ZINC000006809953 ZINC06809953
 26 27 0 0 0
SMALL
GASTEIGER

@<TRIPOS>ATOM
      1 C           8.3560   41.7947    8.0709 C.ar    1  UNL1        0.0857
      2 C           8.1671   42.3464    6.8092 C.ar    1  UNL1        0.0408
      3 C           6.8914   42.8999    6.2744 C.3     1  UNL1        0.0500
      4 C          10.2268   41.7615    6.8957 C.ar    1  UNL1        0.1085
      5 C           9.6869   41.4210    8.1169 C.ar    1  UNL1        0.0153
      6 C          10.4135   40.7773    9.2492 C.3     1  UNL1        0.0342
      7 N           9.3071   42.3285    6.0891 N.ar    1  UNL1       -0.3451
      8 H           9.4395   42.6586    5.1711 H       1  UNL1        0.1668
      9 C          12.7004   42.3284    6.9888 C.2     1  UNL1        0.3092
     10 O          12.5166   43.3192    7.7473 O.2     1  UNL1       -0.2521
     11 N          11.5945   41.5458    6.5289 N.am    1  UNL1       -0.2551
     12 N          14.0192   41.9932    6.5487 N.am    1  UNL1       -0.2676
     13 H          11.7883   40.8023    5.9134 H       1  UNL1        0.1578
     14 H          14.1097   41.3189    5.8372 H       1  UNL1        0.1564
     15 C          15.2164   42.5748    7.0760 C.ar    1  UNL1        0.0578
     16 C          15.7846   43.6590    6.3978 C.ar    1  UNL1        0.0152
     17 C          16.9557   44.2563    6.8699 C.ar    1  UNL1        0.0013
     18 C          17.5764   43.7629    8.0189 C.ar    1  UNL1        0.0006
     19 C          17.0333   42.6635    8.6876 C.ar    1  UNL1        0.0079
     20 C          15.8600   42.0600    8.2231 C.ar    1  UNL1        0.0480
     21 BR         15.2553   40.4832    9.1256 Br      1  UNL1       -0.0477
     22 C           7.3511   41.6369    9.1422 C.2     1  UNL1        0.3421
     23 O           6.3024   40.9687    8.9308 O.2     1  UNL1       -0.2449
     24 O           7.5625   42.2354   10.3883 O.3     1  UNL1       -0.4454
     25 C           8.4613   41.3170   12.4330 C.3     1  UNL1        0.0513
     26 C           7.2156   41.6024   11.6144 C.3     1  UNL1        0.2089
@<TRIPOS>BOND
     1    25    26    1
     2    26    24    1
     3    22    24    1
     4    22     1    1
     5     2     7   ar
     6     3     2    1
     7     4    11    1
     8     9    12   am
     9    16    17   ar
    10    18    19   ar
    11    20    21    1
    12    20    15   ar
    13     5     1   ar
    14     6     5    1
    15     7     4   ar
    16    11     9   am
    17    12    15    1
    18    22    23    2
    19     1     2   ar
    20     4     5   ar
    21     9    10    2
    22    15    16   ar
    23    17    18   ar
    24    19    20   ar
    25     7     8    1
    26    11    13    1
    27    12    14    1
@<TRIPOS>MOLECULE
MolPort-002-455-709 ChemDiv-D039-0039 MCULE-4081757879 PubChem-23605071 ZINC000006809953 ZINC06809953
 26 27 0 0 0
SMALL
GASTEIGER

@<TRIPOS>ATOM
      1 C          11.9909   41.6628    7.3160 C.ar    1  UNL1        0.0857
      2 C          11.3267   40.7355    6.5217 C.ar    1  UNL1        0.0408
      3 C          11.8222   40.1629    5.2386 C.3     1  UNL1        0.0500
      4 C          10.0421   41.1064    8.1964 C.ar    1  UNL1        0.1085
      5 C          11.1548   41.8951    8.3931 C.ar    1  UNL1        0.0153
      6 C          11.3889   42.8106    9.5469 C.3     1  UNL1        0.0342
      7 N          10.1369   40.3929    7.0562 N.ar    1  UNL1       -0.3451
      8 H           9.4786   39.7579    6.6920 H       1  UNL1        0.1668
      9 C           7.7018   41.7679    8.9269 C.2     1  UNL1        0.3092
     10 O           7.5478   42.5611    7.9583 O.2     1  UNL1       -0.2521
     11 N           8.9261   41.0464    9.0921 N.am    1  UNL1       -0.2551
     12 N           6.6629   41.6046    9.8960 N.am    1  UNL1       -0.2676
     13 H           9.0076   40.4641    9.8818 H       1  UNL1        0.1578
     14 H           6.8742   41.1051   10.7177 H       1  UNL1        0.1564
     15 C           5.3356   42.1205    9.7488 C.ar    1  UNL1        0.0578
     16 C           5.1476   43.2580    8.9558 C.ar    1  UNL1        0.0152
     17 C           3.8722   43.8022    8.7867 C.ar    1  UNL1        0.0013
     18 C           2.7749   43.2190    9.4229 C.ar    1  UNL1        0.0006
     19 C           2.9554   42.1002   10.2392 C.ar    1  UNL1        0.0079
     20 C           4.2287   41.5475   10.4131 C.ar    1  UNL1        0.0480
     21 BR          4.4045   40.0935   11.6466 Br      1  UNL1       -0.0477
     22 C          13.3118   42.2761    7.0679 C.2     1  UNL1        0.3421
     23 O          13.3908   43.4850    6.7169 O.2     1  UNL1       -0.2449
     24 O          14.4731   41.5113    7.2168 O.3     1  UNL1       -0.4454
     25 C          14.6425   40.3708    9.3388 C.3     1  UNL1        0.0513
     26 C          15.2048   41.4533    8.4357 C.3     1  UNL1        0.2089
@<TRIPOS>BOND
     1    25    26    1
     2    26    24    1
     3    22    24    1
     4    22     1    1
     5     2     7   ar
     6     3     2    1
     7     4    11    1
     8     9    12   am
     9    16    17   ar
    10    18    19   ar
    11    20    21    1
    12    20    15   ar
    13     5     1   ar
    14     6     5    1
    15     7     4   ar
    16    11     9   am
    17    12    15    1
    18    22    23    2
    19     1     2   ar
    20     4     5   ar
    21     9    10    2
    22    15    16   ar
    23    17    18   ar
    24    19    20   ar
    25     7     8    1
    26    11    13    1
    27    12    14    1
@<TRIPOS>MOLECULE
MolPort-002-455-709 ChemDiv-D039-0039 MCULE-4081757879 PubChem-23605071 ZINC000006809953 ZINC06809953
 26 27 0 0 0
SMALL
GASTEIGER

@<TRIPOS>ATOM
      1 C          14.4766   37.8639   10.1195 C.ar    1  UNL1        0.0857
      2 C          13.9971   37.1553    9.0240 C.ar    1  UNL1        0.0408
      3 C          14.7771   36.2049    8.1826 C.3     1  UNL1        0.0500
      4 C          12.3467   38.3169    9.7447 C.ar    1  UNL1        0.1085
      5 C          13.4052   38.6094   10.5770 C.ar    1  UNL1        0.0153
      6 C          13.3773   39.5479   11.7358 C.3     1  UNL1        0.0342
      7 N          12.6970   37.4288    8.7925 N.ar    1  UNL1       -0.3451
      8 H          12.1260   37.0592    8.0807 H       1  UNL1        0.1668
      9 C          10.4736   39.8611    8.9992 C.2     1  UNL1        0.3092
     10 O          11.1471   40.3309    8.0418 O.2     1  UNL1       -0.2521
     11 N          11.0364   38.8804    9.8757 N.am    1  UNL1       -0.2551
     12 N           9.1446   40.3297    9.2429 N.am    1  UNL1       -0.2676
     13 H          10.4807   38.5691   10.6264 H       1  UNL1        0.1578
     14 H           8.7093   40.0623   10.0845 H       1  UNL1        0.1564
     15 C           8.4063   41.1625    8.3423 C.ar    1  UNL1        0.0578
     16 C           7.7913   40.5655    7.2362 C.ar    1  UNL1        0.0152
     17 C           7.0651   41.3371    6.3260 C.ar    1  UNL1        0.0013
     18 C           6.9606   42.7172    6.5085 C.ar    1  UNL1        0.0006
     19 C           7.5940   43.3271    7.5937 C.ar    1  UNL1        0.0079
     20 C           8.3220   42.5622    8.5111 C.ar    1  UNL1        0.0480
     21 BR          9.2612   43.4933    9.8958 Br      1  UNL1       -0.0477
     22 C          15.8423   37.8327   10.6819 C.2     1  UNL1        0.3421
     23 O          16.0459   37.3237   11.8178 O.2     1  UNL1       -0.2449
     24 O          16.9068   38.3748    9.9548 O.3     1  UNL1       -0.4454
     25 C          16.9774   40.7535    9.5441 C.3     1  UNL1        0.0513
     26 C          17.5533   39.5868   10.3254 C.3     1  UNL1        0.2089
@<TRIPOS>BOND
     1    25    26    1
     2    26    24    1
     3    22    24    1
     4    22     1    1
     5     2     7   ar
     6     3     2    1
     7     4    11    1
     8     9    12   am
     9    16    17   ar
    10    18    19   ar
    11    20    21    1
    12    20    15   ar
    13     5     1   ar
    14     6     5    1
    15     7     4   ar
    16    11     9   am
    17    12    15    1
    18    22    23    2
    19     1     2   ar
    20     4     5   ar
    21     9    10    2
    22    15    16   ar
    23    17    18   ar
    24    19    20   ar
    25     7     8    1
    26    11    13    1
    27    12    14    1
@<TRIPOS>MOLECULE
MolPort-002-455-709 ChemDiv-D039-0039 MCULE-4081757879 PubChem-23605071 ZINC000006809953 ZINC06809953
 26 27 0 0 0
SMALL
GASTEIGER

@<TRIPOS>ATOM
      1 C          13.7800   37.9469   10.2459 C.ar    1  UNL1        0.0857
      2 C          12.8422   36.9821    9.8967 C.ar    1  UNL1        0.0408
      3 C          12.8263   35.5652   10.3571 C.3     1  UNL1        0.0500
      4 C          12.2534   38.7738    8.8792 C.ar    1  UNL1        0.1085
      5 C          13.3914   39.0981    9.5852 C.ar    1  UNL1        0.0153
      6 C          14.0550   40.4335    9.6153 C.3     1  UNL1        0.0342
      7 N          11.9083   37.4834    9.0630 N.ar    1  UNL1       -0.3451
      8 H          11.1394   37.0088    8.6722 H       1  UNL1        0.1668
      9 C          10.3261   40.3700    8.4474 C.2     1  UNL1        0.3092
     10 O           9.8041   40.1561    9.5756 O.2     1  UNL1       -0.2521
     11 N          11.5239   39.6920    8.0569 N.am    1  UNL1       -0.2551
     12 N           9.7060   41.2711    7.5262 N.am    1  UNL1       -0.2676
     13 H          11.8734   39.8702    7.1539 H       1  UNL1        0.1578
     14 H          10.0480   41.2936    6.6033 H       1  UNL1        0.1564
     15 C           8.6200   42.1425    7.8591 C.ar    1  UNL1        0.0578
     16 C           8.8886   43.2730    8.6389 C.ar    1  UNL1        0.0152
     17 C           7.8611   44.1499    8.9948 C.ar    1  UNL1        0.0013
     18 C           6.5517   43.8937    8.5841 C.ar    1  UNL1        0.0006
     19 C           6.2680   42.7534    7.8292 C.ar    1  UNL1        0.0079
     20 C           7.2908   41.8705    7.4668 C.ar    1  UNL1        0.0480
     21 BR          6.7949   40.2697    6.5406 Br      1  UNL1       -0.0477
     22 C          14.9487   37.7837   11.1347 C.2     1  UNL1        0.3421
     23 O          14.9075   38.2181   12.3182 O.2     1  UNL1       -0.2449
     24 O          16.1023   37.1527   10.6586 O.3     1  UNL1       -0.4454
     25 C          17.4785   39.1172   10.3776 C.3     1  UNL1        0.0513
     26 C          17.4077   37.6808   10.8624 C.3     1  UNL1        0.2089
@<TRIPOS>BOND
     1    25    26    1
     2    26    24    1
     3    22    24    1
     4    22     1    1
     5     2     7   ar
     6     3     2    1
     7     4    11    1
     8     9    12   am
     9    16    17   ar
    10    18    19   ar
    11    20    21    1
    12    20    15   ar
    13     5     1   ar
    14     6     5    1
    15     7     4   ar
    16    11     9   am
    17    12    15    1
    18    22    23    2
    19     1     2   ar
    20     4     5   ar
    21     9    10    2
    22    15    16   ar
    23    17    18   ar
    24    19    20   ar
    25     7     8    1
    26    11    13    1
    27    12    14    1
@<TRIPOS>MOLECULE
MolPort-002-455-709 ChemDiv-D039-0039 MCULE-4081757879 PubChem-23605071 ZINC000006809953 ZINC06809953
 26 27 0 0 0
SMALL
GASTEIGER

@<TRIPOS>ATOM
      1 C          13.9876   40.8117    8.4495 C.ar    1  UNL1        0.0857
      2 C          15.3384   40.7768    8.7755 C.ar    1  UNL1        0.0408
      3 C          16.3056   41.9011    8.6338 C.3     1  UNL1        0.0500
      4 C          14.5699   38.8291    9.2322 C.ar    1  UNL1        0.1085
      5 C          13.5013   39.5517    8.7478 C.ar    1  UNL1        0.0153
      6 C          12.1052   39.0525    8.5859 C.3     1  UNL1        0.0342
      7 N          15.6974   39.5682    9.2542 N.ar    1  UNL1       -0.3451
      8 H          16.5913   39.2861    9.5552 H       1  UNL1        0.1668
      9 C          14.7241   36.3267    8.8287 C.2     1  UNL1        0.3092
     10 O          14.9816   36.4693    7.6022 O.2     1  UNL1       -0.2521
     11 N          14.4937   37.4655    9.6636 N.am    1  UNL1       -0.2551
     12 N          14.6247   35.0178    9.3962 N.am    1  UNL1       -0.2676
     13 H          14.2654   37.2991   10.6067 H       1  UNL1        0.1578
     14 H          14.2686   34.9383   10.3106 H       1  UNL1        0.1564
     15 C          15.0095   33.8156    8.7207 C.ar    1  UNL1        0.0578
     16 C          14.0260   32.8555    8.4581 C.ar    1  UNL1        0.0152
     17 C          14.3536   31.6639    7.8070 C.ar    1  UNL1        0.0013
     18 C          15.6737   31.4174    7.4256 C.ar    1  UNL1        0.0006
     19 C          16.6682   32.3565    7.7078 C.ar    1  UNL1        0.0079
     20 C          16.3491   33.5533    8.3581 C.ar    1  UNL1        0.0480
     21 BR         17.7914   34.7260    8.8173 Br      1  UNL1       -0.0477
     22 C          13.2252   41.9512    7.8992 C.2     1  UNL1        0.3421
     23 O          11.9738   42.0044    8.0478 O.2     1  UNL1       -0.2449
     24 O          13.8936   42.9667    7.2080 O.3     1  UNL1       -0.4454
     25 C          14.9240   43.9883    5.2775 C.3     1  UNL1        0.0513
     26 C          13.7750   43.1466    5.8015 C.3     1  UNL1        0.2089
@<TRIPOS>BOND
     1    25    26    1
     2    26    24    1
     3    22    24    1
     4    22     1    1
     5     2     7   ar
     6     3     2    1
     7     4    11    1
     8     9    12   am
     9    16    17   ar
    10    18    19   ar
    11    20    21    1
    12    20    15   ar
    13     5     1   ar
    14     6     5    1
    15     7     4   ar
    16    11     9   am
    17    12    15    1
    18    22    23    2
    19     1     2   ar
    20     4     5   ar
    21     9    10    2
    22    15    16   ar
    23    17    18   ar
    24    19    20   ar
    25     7     8    1
    26    11    13    1
    27    12    14    1
@<TRIPOS>MOLECULE
MolPort-002-455-709 ChemDiv-D039-0039 MCULE-4081757879 PubChem-23605071 ZINC000006809953 ZINC06809953
 26 27 0 0 0
SMALL
GASTEIGER

@<TRIPOS>ATOM
      1 C          13.9203   38.2144    9.6542 C.ar    1  UNL1        0.0857
      2 C          13.1781   37.0433    9.5543 C.ar    1  UNL1        0.0408
      3 C          13.7260   35.6668    9.3969 C.3     1  UNL1        0.0500
      4 C          11.7527   38.6304    9.7584 C.ar    1  UNL1        0.1085
      5 C          12.9923   39.2316    9.7857 C.ar    1  UNL1        0.0153
      6 C          13.2565   40.6924    9.9292 C.3     1  UNL1        0.0342
      7 N          11.8545   37.2933    9.6182 N.ar    1  UNL1       -0.3451
      8 H          11.1199   36.6394    9.5723 H       1  UNL1        0.1668
      9 C          10.0098   40.2718    8.9118 C.2     1  UNL1        0.3092
     10 O          10.6847   40.5688    7.8884 O.2     1  UNL1       -0.2521
     11 N          10.5107   39.3350    9.8701 N.am    1  UNL1       -0.2551
     12 N           8.7447   40.8961    9.1462 N.am    1  UNL1       -0.2676
     13 H           9.9596   39.1615   10.6673 H       1  UNL1        0.1578
     14 H           8.3215   40.7632   10.0251 H       1  UNL1        0.1564
     15 C           8.0538   41.7019    8.1855 C.ar    1  UNL1        0.0578
     16 C           7.8425   43.0537    8.4791 C.ar    1  UNL1        0.0152
     17 C           7.1682   43.8790    7.5761 C.ar    1  UNL1        0.0013
     18 C           6.6865   43.3531    6.3760 C.ar    1  UNL1        0.0006
     19 C           6.8672   41.9989    6.0855 C.ar    1  UNL1        0.0079
     20 C           7.5427   41.1653    6.9831 C.ar    1  UNL1        0.0480
     21 BR          7.6352   39.2992    6.5641 Br      1  UNL1       -0.0477
     22 C          15.3909   38.3513    9.6259 C.2     1  UNL1        0.3421
     23 O          16.0749   37.6529    8.8288 O.2     1  UNL1       -0.2449
     24 O          16.0227   39.2519   10.4893 O.3     1  UNL1       -0.4454
     25 C          18.3677   38.7905   10.8361 C.3     1  UNL1        0.0513
     26 C          17.3377   39.7443   10.2593 C.3     1  UNL1        0.2089
@<TRIPOS>BOND
     1    25    26    1
     2    26    24    1
     3    22    24    1
     4    22     1    1
     5     2     7   ar
     6     3     2    1
     7     4    11    1
     8     9    12   am
     9    16    17   ar
    10    18    19   ar
    11    20    21    1
    12    20    15   ar
    13     5     1   ar
    14     6     5    1
    15     7     4   ar
    16    11     9   am
    17    12    15    1
    18    22    23    2
    19     1     2   ar
    20     4     5   ar
    21     9    10    2
    22    15    16   ar
    23    17    18   ar
    24    19    20   ar
    25     7     8    1
    26    11    13    1
    27    12    14    1
