@<TRIPOS>MOLECULE
MolPort-000-841-011 CSSS00132831161
 36 38 0 0 0
SMALL
GASTEIGER

@<TRIPOS>ATOM
      1 C          13.9002   39.3114    9.2818 C.ar    1  UNL1        0.0003
      2 C          14.1138   37.9367    9.3736 C.ar    1  UNL1        0.0031
      3 C          13.0921   37.0946    9.8150 C.ar    1  UNL1        0.0367
      4 C          11.8436   37.6063   10.1885 C.ar    1  UNL1        0.1382
      5 C          11.6314   39.0099   10.1195 C.ar    1  UNL1        0.0551
      6 C          12.6718   39.8422    9.6883 C.ar    1  UNL1        0.0023
      7 C          14.8655   43.7342    6.5801 C.2     1  UNL1        0.1533
      8 C          13.7843   41.7129    7.3155 C.2     1  UNL1        0.2749
      9 C          14.9665   41.2725    8.0897 C.2     1  UNL1        0.1092
     10 C          15.0152   40.1809    8.8752 C.2     1  UNL1        0.0092
     11 C          16.1791   42.0927    7.9328 C.2     1  UNL1        0.2584
     12 N          16.1189   43.3216    7.1848 N.am    1  UNL1       -0.2391
     13 N          13.8124   42.9752    6.6441 N.am    1  UNL1       -0.1546
     14 S          14.7114   45.2885    5.6947 S.3     1  UNL1       -0.1099
     15 O          12.7735   40.9756    7.1765 O.2     1  UNL1       -0.2678
     16 O          17.2651   41.7268    8.4640 O.2     1  UNL1       -0.2694
     17 H          15.8998   45.9489    5.7278 H       1  UNL1        0.1096
     18 C          17.3535   44.1093    7.0687 C.3     1  UNL1        0.0818
     19 C          18.0980   43.7904    5.7841 C.3     1  UNL1        0.0220
     20 C          17.5967   44.5452    9.5133 C.3     1  UNL1        0.0018
     21 C          18.2553   43.9481    8.2847 C.3     1  UNL1        0.0202
     22 C          11.1604   35.3743   11.1181 C.3     1  UNL1        0.2525
     23 O          10.8840   36.6722   10.6125 O.3     1  UNL1       -0.4716
     24 C          10.3379   39.6632   10.4992 C.3     1  UNL1        0.2350
     25 O          10.4010   41.0743   10.3016 O.3     1  UNL1       -0.4705
     26 C           9.3853   41.8164    9.6881 C.ar    1  UNL1        0.1391
     27 C           8.4494   41.2190    8.8294 C.ar    1  UNL1        0.0382
     28 C           7.4512   41.9903    8.2283 C.ar    1  UNL1        0.0178
     29 C           7.3733   43.3644    8.4764 C.ar    1  UNL1        0.0505
     30 C           8.3073   43.9596    9.3374 C.ar    1  UNL1        0.0178
     31 C           9.3061   43.1893    9.9391 C.ar    1  UNL1        0.0382
     32 C           4.9874   44.2836    8.2991 C.2     1  UNL1        0.2266
     33 C           4.0427   45.1102    7.5042 C.3     1  UNL1        0.0949
     34 N           6.3354   44.1226    7.8402 N.am    1  UNL1       -0.2839
     35 O           4.5876   43.7396    9.3622 O.2     1  UNL1       -0.2748
     36 H           6.5736   44.5797    7.0014 H       1  UNL1        0.1549
@<TRIPOS>BOND
     1    20    21    1
     2    18    21    1
     3    18    19    1
     4    18    12    1
     5     7    14    1
     6     8    13    1
     7     8     9    1
     8     9    11    1
     9    10     1    1
    10     2     3   ar
    11     4    23    1
    12     4     5   ar
    13    22    23    1
    14    24     5    1
    15    24    25    1
    16    26    25    1
    17    27    28   ar
    18    29    34    1
    19    29    30   ar
    20    33    32    1
    21    31    26   ar
    22     6     1   ar
    23    11    12   am
    24    12     7    1
    25    34    32   am
    26     7    13    2
    27     8    15    2
    28     9    10    2
    29     1     2   ar
    30     3     4   ar
    31     5     6   ar
    32    26    27   ar
    33    28    29   ar
    34    32    35    2
    35    30    31   ar
    36    11    16    2
    37    34    36    1
    38    14    17    1
@<TRIPOS>MOLECULE
MolPort-000-841-011 CSSS00132831161
 36 38 0 0 0
SMALL
GASTEIGER

@<TRIPOS>ATOM
      1 C          10.5521   41.2399   10.1737 C.ar    1  UNL1        0.0003
      2 C          10.8025   42.2312    9.2257 C.ar    1  UNL1        0.0031
      3 C          12.0425   42.2972    8.5886 C.ar    1  UNL1        0.0367
      4 C          13.0621   41.3878    8.8943 C.ar    1  UNL1        0.1382
      5 C          12.8178   40.3917    9.8780 C.ar    1  UNL1        0.0551
      6 C          11.5731   40.3485   10.5184 C.ar    1  UNL1        0.0023
      7 C           5.5013   42.5695    9.4567 C.2     1  UNL1        0.1533
      8 C           7.8971   42.5413    9.2227 C.2     1  UNL1        0.2749
      9 C           8.0822   41.7217   10.4412 C.2     1  UNL1        0.1092
     10 C           9.2590   41.2343   10.8754 C.2     1  UNL1        0.0092
     11 C           6.8698   41.4742   11.2392 C.2     1  UNL1        0.2584
     12 N           5.5867   41.8936   10.7384 N.am    1  UNL1       -0.2391
     13 N           6.5745   42.8651    8.7859 N.am    1  UNL1       -0.1546
     14 S           3.9242   43.0545    8.7487 S.3     1  UNL1       -0.1099
     15 O           8.8766   43.0187    8.5925 O.2     1  UNL1       -0.2678
     16 O           6.9533   40.8838   12.3527 O.2     1  UNL1       -0.2694
     17 H           2.9174   42.6689    9.5776 H       1  UNL1        0.1096
     18 C           4.4070   41.6117   11.5673 C.3     1  UNL1        0.0818
     19 C           3.9494   40.1719   11.4123 C.3     1  UNL1        0.0220
     20 C           2.0978   42.2974   12.2176 C.3     1  UNL1        0.0018
     21 C           3.2683   42.5856   11.2976 C.3     1  UNL1        0.0202
     22 C          15.5616   41.2312    8.6923 C.3     1  UNL1        0.2525
     23 O          14.2689   41.5389    8.1915 O.3     1  UNL1       -0.4716
     24 C          13.8384   39.3734   10.2849 C.3     1  UNL1        0.2350
     25 O          13.2658   38.0680   10.3346 O.3     1  UNL1       -0.4705
     26 C          13.8258   36.9524    9.7016 C.ar    1  UNL1        0.1391
     27 C          13.3810   35.6488    9.9718 C.ar    1  UNL1        0.0382
     28 C          13.9660   34.5563    9.3264 C.ar    1  UNL1        0.0178
     29 C          14.9995   34.7497    8.4043 C.ar    1  UNL1        0.0505
     30 C          15.4409   36.0533    8.1327 C.ar    1  UNL1        0.0178
     31 C          14.8566   37.1468    8.7776 C.ar    1  UNL1        0.0382
     32 C          16.7904   33.5663    7.0037 C.2     1  UNL1        0.2266
     33 C          17.2354   32.2806    6.4067 C.3     1  UNL1        0.0949
     34 N          15.5756   33.6034    7.7631 N.am    1  UNL1       -0.2839
     35 O          17.4881   34.6006    6.8326 O.2     1  UNL1       -0.2748
     36 H          15.0858   32.7543    7.8540 H       1  UNL1        0.1549
@<TRIPOS>BOND
     1    20    21    1
     2    18    21    1
     3    18    19    1
     4    18    12    1
     5     7    14    1
     6     8    13    1
     7     8     9    1
     8     9    11    1
     9    10     1    1
    10     2     3   ar
    11     4    23    1
    12     4     5   ar
    13    22    23    1
    14    24     5    1
    15    24    25    1
    16    26    25    1
    17    27    28   ar
    18    29    34    1
    19    29    30   ar
    20    33    32    1
    21    31    26   ar
    22     6     1   ar
    23    11    12   am
    24    12     7    1
    25    34    32   am
    26     7    13    2
    27     8    15    2
    28     9    10    2
    29     1     2   ar
    30     3     4   ar
    31     5     6   ar
    32    26    27   ar
    33    28    29   ar
    34    32    35    2
    35    30    31   ar
    36    11    16    2
    37    34    36    1
    38    14    17    1
@<TRIPOS>MOLECULE
MolPort-000-841-011 CSSS00132831161
 36 38 0 0 0
SMALL
GASTEIGER

@<TRIPOS>ATOM
      1 C           9.6535   40.6123   11.1680 C.ar    1  UNL1        0.0003
      2 C          10.5575   41.1389   12.0897 C.ar    1  UNL1        0.0031
      3 C          11.9061   40.7838   12.0330 C.ar    1  UNL1        0.0367
      4 C          12.3777   39.8859   11.0679 C.ar    1  UNL1        0.1382
      5 C          11.4539   39.3287   10.1428 C.ar    1  UNL1        0.0551
      6 C          10.1017   39.6842   10.2228 C.ar    1  UNL1        0.0023
      7 C           5.9171   43.4960    8.8194 C.2     1  UNL1        0.1533
      8 C           8.0876   42.7435    9.5393 C.2     1  UNL1        0.2749
      9 C           7.5171   41.8150   10.5408 C.2     1  UNL1        0.1092
     10 C           8.2279   40.9540   11.2921 C.2     1  UNL1        0.0092
     11 C           6.0597   41.8949   10.7340 C.2     1  UNL1        0.2584
     12 N           5.2686   42.7295    9.8676 N.am    1  UNL1       -0.2391
     13 N           7.2109   43.4950    8.6957 N.am    1  UNL1       -0.1546
     14 S           4.9774   44.5002    7.6652 S.3     1  UNL1       -0.1099
     15 O           9.3278   42.9407    9.4522 O.2     1  UNL1       -0.2678
     16 O           5.5035   41.2230   11.6477 O.2     1  UNL1       -0.2694
     17 H           3.6503   44.3831    7.9387 H       1  UNL1        0.1096
     18 C           3.8175   42.7643   10.0944 C.3     1  UNL1        0.0818
     19 C           3.4742   42.4767   11.5455 C.3     1  UNL1        0.0220
     20 C           2.9687   40.4431    9.7525 C.3     1  UNL1        0.0018
     21 C           3.0657   41.8330    9.1536 C.3     1  UNL1        0.0202
     22 C          14.3622   38.5327   11.8052 C.3     1  UNL1        0.2525
     23 O          13.7529   39.6009   11.0951 O.3     1  UNL1       -0.4716
     24 C          11.8492   38.3560    9.0743 C.3     1  UNL1        0.2350
     25 O          11.8957   38.9906    7.7978 O.3     1  UNL1       -0.4705
     26 C          12.5478   40.2060    7.5607 C.ar    1  UNL1        0.1391
     27 C          13.8412   40.4573    8.0444 C.ar    1  UNL1        0.0382
     28 C          14.4613   41.6844    7.7947 C.ar    1  UNL1        0.0178
     29 C          13.8008   42.6741    7.0599 C.ar    1  UNL1        0.0505
     30 C          12.5094   42.4205    6.5742 C.ar    1  UNL1        0.0178
     31 C          11.8882   41.1937    6.8234 C.ar    1  UNL1        0.0382
     32 C          14.9267   44.4242    5.5636 C.2     1  UNL1        0.2266
     33 C          15.6054   45.7449    5.5107 C.3     1  UNL1        0.0949
     34 N          14.4695   43.9210    6.8252 N.am    1  UNL1       -0.2839
     35 O          14.7645   43.7705    4.4996 O.2     1  UNL1       -0.2748
     36 H          14.6313   44.4900    7.6121 H       1  UNL1        0.1549
@<TRIPOS>BOND
     1    20    21    1
     2    18    21    1
     3    18    19    1
     4    18    12    1
     5     7    14    1
     6     8    13    1
     7     8     9    1
     8     9    11    1
     9    10     1    1
    10     2     3   ar
    11     4    23    1
    12     4     5   ar
    13    22    23    1
    14    24     5    1
    15    24    25    1
    16    26    25    1
    17    27    28   ar
    18    29    34    1
    19    29    30   ar
    20    33    32    1
    21    31    26   ar
    22     6     1   ar
    23    11    12   am
    24    12     7    1
    25    34    32   am
    26     7    13    2
    27     8    15    2
    28     9    10    2
    29     1     2   ar
    30     3     4   ar
    31     5     6   ar
    32    26    27   ar
    33    28    29   ar
    34    32    35    2
    35    30    31   ar
    36    11    16    2
    37    34    36    1
    38    14    17    1
@<TRIPOS>MOLECULE
MolPort-000-841-011 CSSS00132831161
 36 38 0 0 0
SMALL
GASTEIGER

@<TRIPOS>ATOM
      1 C          13.7395   41.9798    7.0863 C.ar    1  UNL1        0.0003
      2 C          14.3548   43.1761    6.7201 C.ar    1  UNL1        0.0031
      3 C          15.6258   43.4896    7.2040 C.ar    1  UNL1        0.0367
      4 C          16.3019   42.6260    8.0742 C.ar    1  UNL1        0.1382
      5 C          15.6665   41.4175    8.4686 C.ar    1  UNL1        0.0551
      6 C          14.3850   41.1249    7.9855 C.ar    1  UNL1        0.0023
      7 C           8.7048   42.7476    8.4483 C.2     1  UNL1        0.1533
      8 C          11.0879   42.4590    8.6310 C.2     1  UNL1        0.2749
      9 C          11.2133   41.9823    7.2353 C.2     1  UNL1        0.1092
     10 C          12.3738   41.7059    6.6127 C.2     1  UNL1        0.0092
     11 C           9.9479   41.7651    6.5146 C.2     1  UNL1        0.2584
     12 N           8.7027   42.1555    7.1230 N.am    1  UNL1       -0.2391
     13 N           9.8087   42.8663    9.1239 N.am    1  UNL1       -0.1546
     14 S           7.1921   43.3171    9.2300 S.3     1  UNL1       -0.1099
     15 O          12.0678   42.4550    9.4211 O.2     1  UNL1       -0.2678
     16 O           9.9557   41.2507    5.3610 O.2     1  UNL1       -0.2694
     17 H           6.1436   43.1181    8.3871 H       1  UNL1        0.1096
     18 C           7.4699   41.9287    6.3569 C.3     1  UNL1        0.0818
     19 C           6.7434   43.2318    6.0735 C.3     1  UNL1        0.0220
     20 C           6.1802   39.8133    6.0618 C.3     1  UNL1        0.0018
     21 C           6.5512   40.9190    7.0310 C.3     1  UNL1        0.0202
     22 C          18.3415   44.0855    7.9252 C.3     1  UNL1        0.2525
     23 O          17.5777   43.0339    8.4972 O.3     1  UNL1       -0.4716
     24 C          16.2962   40.4255    9.3979 C.3     1  UNL1        0.2350
     25 O          15.3487   39.9434   10.3488 O.3     1  UNL1       -0.4705
     26 C          14.0765   39.4730   10.0039 C.ar    1  UNL1        0.1391
     27 C          12.9257   39.8785   10.6977 C.ar    1  UNL1        0.0382
     28 C          11.6709   39.3849   10.3311 C.ar    1  UNL1        0.0178
     29 C          11.5481   38.4831    9.2693 C.ar    1  UNL1        0.0505
     30 C          12.6987   38.0811    8.5747 C.ar    1  UNL1        0.0178
     31 C          13.9542   38.5741    8.9404 C.ar    1  UNL1        0.0382
     32 C           9.5984   38.1074    7.6486 C.2     1  UNL1        0.2266
     33 C           8.2351   37.5434    7.4729 C.3     1  UNL1        0.0949
     34 N          10.2435   37.9978    8.9236 N.am    1  UNL1       -0.2839
     35 O          10.1633   38.6713    6.6746 O.2     1  UNL1       -0.2748
     36 H           9.7390   37.5423    9.6358 H       1  UNL1        0.1549
@<TRIPOS>BOND
     1    20    21    1
     2    18    21    1
     3    18    19    1
     4    18    12    1
     5     7    14    1
     6     8    13    1
     7     8     9    1
     8     9    11    1
     9    10     1    1
    10     2     3   ar
    11     4    23    1
    12     4     5   ar
    13    22    23    1
    14    24     5    1
    15    24    25    1
    16    26    25    1
    17    27    28   ar
    18    29    34    1
    19    29    30   ar
    20    33    32    1
    21    31    26   ar
    22     6     1   ar
    23    11    12   am
    24    12     7    1
    25    34    32   am
    26     7    13    2
    27     8    15    2
    28     9    10    2
    29     1     2   ar
    30     3     4   ar
    31     5     6   ar
    32    26    27   ar
    33    28    29   ar
    34    32    35    2
    35    30    31   ar
    36    11    16    2
    37    34    36    1
    38    14    17    1
@<TRIPOS>MOLECULE
MolPort-000-841-011 CSSS00132831161
 36 38 0 0 0
SMALL
GASTEIGER

@<TRIPOS>ATOM
      1 C           8.6410   40.2999    7.1589 C.ar    1  UNL1        0.0003
      2 C           8.2521   39.4963    6.0879 C.ar    1  UNL1        0.0031
      3 C           9.1527   39.2101    5.0607 C.ar    1  UNL1        0.0367
      4 C          10.4522   39.7310    5.0720 C.ar    1  UNL1        0.1382
      5 C          10.8431   40.5705    6.1501 C.ar    1  UNL1        0.0551
      6 C           9.9226   40.8596    7.1651 C.ar    1  UNL1        0.0023
      7 C           4.7664   43.7345    8.1507 C.2     1  UNL1        0.1533
      8 C           6.7799   42.7854    7.2339 C.2     1  UNL1        0.2749
      9 C           6.7820   41.6647    8.2008 C.2     1  UNL1        0.1092
     10 C           7.6511   40.6373    8.1937 C.2     1  UNL1        0.0092
     11 C           5.7664   41.7322    9.2646 C.2     1  UNL1        0.2584
     12 N           4.7612   42.7625    9.2288 N.am    1  UNL1       -0.2391
     13 N           5.7078   43.7315    7.2546 N.am    1  UNL1       -0.1546
     14 S           3.4996   44.9994    8.0143 S.3     1  UNL1       -0.1099
     15 O           7.7330   42.9681    6.4322 O.2     1  UNL1       -0.2678
     16 O           5.7684   40.8812   10.1980 O.2     1  UNL1       -0.2694
     17 H           2.6026   44.8537    9.0262 H       1  UNL1        0.1096
     18 C           3.7634   42.7782   10.3070 C.3     1  UNL1        0.0818
     19 C           4.3120   42.1612   11.5815 C.3     1  UNL1        0.0220
     20 C           2.7317   40.8226    9.1509 C.3     1  UNL1        0.0018
     21 C           2.4565   42.1174    9.8910 C.3     1  UNL1        0.0202
     22 C          11.1406   38.2122    3.1926 C.3     1  UNL1        0.2525
     23 O          11.2795   39.3765    3.9936 O.3     1  UNL1       -0.4716
     24 C          12.2053   41.1843    6.2591 C.3     1  UNL1        0.2350
     25 O          12.2426   42.1641    7.2949 O.3     1  UNL1       -0.4705
     26 C          11.8258   41.9186    8.6082 C.ar    1  UNL1        0.1391
     27 C          12.3087   40.8256    9.3446 C.ar    1  UNL1        0.0382
     28 C          11.8672   40.6059   10.6520 C.ar    1  UNL1        0.0178
     29 C          10.9409   41.4726   11.2408 C.ar    1  UNL1        0.0505
     30 C          10.4614   42.5664   10.5049 C.ar    1  UNL1        0.0178
     31 C          10.9023   42.7871    9.1971 C.ar    1  UNL1        0.0382
     32 C           9.1719   41.3021   13.0877 C.2     1  UNL1        0.2266
     33 C           8.9116   40.9967   14.5182 C.3     1  UNL1        0.0949
     34 N          10.5108   41.2135   12.5842 N.am    1  UNL1       -0.2839
     35 O           8.2121   41.6329   12.3426 O.2     1  UNL1       -0.2748
     36 H          11.2073   40.9473   13.2270 H       1  UNL1        0.1549
@<TRIPOS>BOND
     1    20    21    1
     2    18    21    1
     3    18    19    1
     4    18    12    1
     5     7    14    1
     6     8    13    1
     7     8     9    1
     8     9    11    1
     9    10     1    1
    10     2     3   ar
    11     4    23    1
    12     4     5   ar
    13    22    23    1
    14    24     5    1
    15    24    25    1
    16    26    25    1
    17    27    28   ar
    18    29    34    1
    19    29    30   ar
    20    33    32    1
    21    31    26   ar
    22     6     1   ar
    23    11    12   am
    24    12     7    1
    25    34    32   am
    26     7    13    2
    27     8    15    2
    28     9    10    2
    29     1     2   ar
    30     3     4   ar
    31     5     6   ar
    32    26    27   ar
    33    28    29   ar
    34    32    35    2
    35    30    31   ar
    36    11    16    2
    37    34    36    1
    38    14    17    1
@<TRIPOS>MOLECULE
MolPort-000-841-011 CSSS00132831161
 36 38 0 0 0
SMALL
GASTEIGER

@<TRIPOS>ATOM
      1 C          11.0820   41.4167    5.9888 C.ar    1  UNL1        0.0003
      2 C          11.0844   40.0340    5.8097 C.ar    1  UNL1        0.0031
      3 C           9.8800   39.3373    5.7006 C.ar    1  UNL1        0.0367
      4 C           8.6502   40.0013    5.7835 C.ar    1  UNL1        0.1382
      5 C           8.6448   41.4073    5.9908 C.ar    1  UNL1        0.0551
      6 C           9.8619   42.0890    6.1128 C.ar    1  UNL1        0.0023
      7 C          15.5717   41.0981    8.7335 C.2     1  UNL1        0.1533
      8 C          13.2573   40.8314    8.1272 C.2     1  UNL1        0.2749
      9 C          13.3515   41.8228    7.0321 C.2     1  UNL1        0.1092
     10 C          12.3647   42.1153    6.1652 C.2     1  UNL1        0.0092
     11 C          14.6240   42.5574    6.9385 C.2     1  UNL1        0.2584
     12 N          15.7278   42.1857    7.7849 N.am    1  UNL1       -0.2391
     13 N          14.4271   40.5001    8.8799 N.am    1  UNL1       -0.1546
     14 S          16.9318   40.5441    9.7664 S.3     1  UNL1       -0.1099
     15 O          12.1576   40.3166    8.4595 O.2     1  UNL1       -0.2678
     16 O          14.7515   43.5014    6.1089 O.2     1  UNL1       -0.2694
     17 H          18.0435   41.2740    9.4820 H       1  UNL1        0.1096
     18 C          16.9794   42.9420    7.6434 C.3     1  UNL1        0.0818
     19 C          17.3807   43.6030    8.9503 C.3     1  UNL1        0.0220
     20 C          18.0420   43.7176    5.5233 C.3     1  UNL1        0.0018
     21 C          16.9141   43.9551    6.5088 C.3     1  UNL1        0.0202
     22 C           6.2262   39.4997    6.2138 C.3     1  UNL1        0.2525
     23 O           7.4986   39.2073    5.6553 O.3     1  UNL1       -0.4716
     24 C           7.3879   42.2152    6.0995 C.3     1  UNL1        0.2350
     25 O           7.5014   43.2011    7.1240 O.3     1  UNL1       -0.4705
     26 C           7.6796   42.8938    8.4777 C.ar    1  UNL1        0.1391
     27 C           8.6271   43.5623    9.2687 C.ar    1  UNL1        0.0382
     28 C           8.7836   43.2268   10.6160 C.ar    1  UNL1        0.0178
     29 C           7.9979   42.2228   11.1908 C.ar    1  UNL1        0.0505
     30 C           7.0490   41.5577   10.4001 C.ar    1  UNL1        0.0178
     31 C           6.8916   41.8924    9.0524 C.ar    1  UNL1        0.0382
     32 C           9.3502   41.3103   13.1676 C.2     1  UNL1        0.2266
     33 C           9.3698   41.0515   14.6306 C.3     1  UNL1        0.0949
     34 N           8.1885   41.9059   12.5765 N.am    1  UNL1       -0.2839
     35 O          10.3544   41.0025   12.4728 O.2     1  UNL1       -0.2748
     36 H           7.4443   42.1197   13.1845 H       1  UNL1        0.1549
@<TRIPOS>BOND
     1    20    21    1
     2    18    21    1
     3    18    19    1
     4    18    12    1
     5     7    14    1
     6     8    13    1
     7     8     9    1
     8     9    11    1
     9    10     1    1
    10     2     3   ar
    11     4    23    1
    12     4     5   ar
    13    22    23    1
    14    24     5    1
    15    24    25    1
    16    26    25    1
    17    27    28   ar
    18    29    34    1
    19    29    30   ar
    20    33    32    1
    21    31    26   ar
    22     6     1   ar
    23    11    12   am
    24    12     7    1
    25    34    32   am
    26     7    13    2
    27     8    15    2
    28     9    10    2
    29     1     2   ar
    30     3     4   ar
    31     5     6   ar
    32    26    27   ar
    33    28    29   ar
    34    32    35    2
    35    30    31   ar
    36    11    16    2
    37    34    36    1
    38    14    17    1
@<TRIPOS>MOLECULE
MolPort-000-841-011 CSSS00132831161
 36 38 0 0 0
SMALL
GASTEIGER

@<TRIPOS>ATOM
      1 C          13.2869   42.3850    6.4798 C.ar    1  UNL1        0.0003
      2 C          13.6979   43.5321    5.8023 C.ar    1  UNL1        0.0031
      3 C          14.9470   44.0956    6.0678 C.ar    1  UNL1        0.0367
      4 C          15.8039   43.5373    7.0238 C.ar    1  UNL1        0.1382
      5 C          15.3770   42.3823    7.7335 C.ar    1  UNL1        0.0551
      6 C          14.1148   41.8381    7.4654 C.ar    1  UNL1        0.0023
      7 C           8.6097   41.7900    8.8382 C.2     1  UNL1        0.1533
      8 C          10.9837   42.0527    8.5369 C.2     1  UNL1        0.2749
      9 C          10.9064   41.7758    7.0849 C.2     1  UNL1        0.1092
     10 C          11.9397   41.8509    6.2261 C.2     1  UNL1        0.0092
     11 C           9.5907   41.3472    6.5818 C.2     1  UNL1        0.2584
     12 N           8.4498   41.3637    7.4599 N.am    1  UNL1       -0.2391
     13 N           9.7823   42.0902    9.3116 N.am    1  UNL1       -0.1546
     14 S           7.2128   41.8973    9.9611 S.3     1  UNL1       -0.1099
     15 O          12.0878   42.1927    9.1249 O.2     1  UNL1       -0.2678
     16 O           9.4604   40.9795    5.3804 O.2     1  UNL1       -0.2694
     17 H           6.0743   41.5510    9.3027 H       1  UNL1        0.1096
     18 C           7.1575   40.9387    6.9053 C.3     1  UNL1        0.0818
     19 C           7.2450   39.5533    6.2895 C.3     1  UNL1        0.0220
     20 C           6.6066   43.3410    6.5173 C.3     1  UNL1        0.0018
     21 C           6.5962   41.9494    5.9148 C.3     1  UNL1        0.0202
     22 C          18.0980   43.7123    8.0334 C.3     1  UNL1        0.2525
     23 O          17.0396   44.1789    7.2095 O.3     1  UNL1       -0.4716
     24 C          16.2109   41.7078    8.7793 C.3     1  UNL1        0.2350
     25 O          15.4961   40.6344    9.3886 O.3     1  UNL1       -0.4705
     26 C          15.9535   39.3118    9.4074 C.ar    1  UNL1        0.1391
     27 C          15.1178   38.2360    9.0689 C.ar    1  UNL1        0.0382
     28 C          15.6048   36.9268    9.1039 C.ar    1  UNL1        0.0178
     29 C          16.9292   36.6744    9.4753 C.ar    1  UNL1        0.0505
     30 C          17.7643   37.7507    9.8102 C.ar    1  UNL1        0.0178
     31 C          17.2784   39.0606    9.7756 C.ar    1  UNL1        0.0382
     32 C          18.7263   34.8715    9.7742 C.2     1  UNL1        0.2266
     33 C          19.0249   33.4162    9.7549 C.3     1  UNL1        0.0949
     34 N          17.3921   35.3172    9.5003 N.am    1  UNL1       -0.2839
     35 O          19.6501   35.6878   10.0312 O.2     1  UNL1       -0.2748
     36 H          16.7242   34.6195    9.3095 H       1  UNL1        0.1549
@<TRIPOS>BOND
     1    20    21    1
     2    18    21    1
     3    18    19    1
     4    18    12    1
     5     7    14    1
     6     8    13    1
     7     8     9    1
     8     9    11    1
     9    10     1    1
    10     2     3   ar
    11     4    23    1
    12     4     5   ar
    13    22    23    1
    14    24     5    1
    15    24    25    1
    16    26    25    1
    17    27    28   ar
    18    29    34    1
    19    29    30   ar
    20    33    32    1
    21    31    26   ar
    22     6     1   ar
    23    11    12   am
    24    12     7    1
    25    34    32   am
    26     7    13    2
    27     8    15    2
    28     9    10    2
    29     1     2   ar
    30     3     4   ar
    31     5     6   ar
    32    26    27   ar
    33    28    29   ar
    34    32    35    2
    35    30    31   ar
    36    11    16    2
    37    34    36    1
    38    14    17    1
@<TRIPOS>MOLECULE
MolPort-000-841-011 CSSS00132831161
 36 38 0 0 0
SMALL
GASTEIGER

@<TRIPOS>ATOM
      1 C          12.3025   38.4852    9.6091 C.ar    1  UNL1        0.0003
      2 C          12.4796   39.0261   10.8819 C.ar    1  UNL1        0.0031
      3 C          11.6454   40.0503   11.3326 C.ar    1  UNL1        0.0367
      4 C          10.6295   40.5665   10.5192 C.ar    1  UNL1        0.1382
      5 C          10.4629   40.0339    9.2122 C.ar    1  UNL1        0.0551
      6 C          11.3177   39.0165    8.7702 C.ar    1  UNL1        0.0023
      7 C          17.4594   37.4044    9.4318 C.2     1  UNL1        0.1533
      8 C          15.4032   38.6518    9.5400 C.2     1  UNL1        0.2749
      9 C          14.5821   37.4755    9.1755 C.2     1  UNL1        0.1092
     10 C          13.2372   37.4517    9.1370 C.2     1  UNL1        0.0092
     11 C          15.3281   36.2658    8.7906 C.2     1  UNL1        0.2584
     12 N          16.7610   36.2359    8.9279 N.am    1  UNL1       -0.2391
     13 N          16.8170   38.5032    9.6949 N.am    1  UNL1       -0.1546
     14 S          19.2362   37.4037    9.6896 S.3     1  UNL1       -0.1099
     15 O          14.8990   39.7995    9.6547 O.2     1  UNL1       -0.2678
     16 O          14.7119   35.2530    8.3547 O.2     1  UNL1       -0.2694
     17 H          19.7406   36.1827    9.3667 H       1  UNL1        0.1096
     18 C          17.4564   35.0006    8.5419 C.3     1  UNL1        0.0818
     19 C          17.8348   35.0116    7.0712 C.3     1  UNL1        0.0220
     20 C          17.5592   32.5368    8.9214 C.3     1  UNL1        0.0018
     21 C          16.6565   33.7551    8.8975 C.3     1  UNL1        0.0202
     22 C           8.7341   41.4071   11.9381 C.3     1  UNL1        0.2525
     23 O           9.8437   41.5916   11.0714 O.3     1  UNL1       -0.4716
     24 C           9.4127   40.5152    8.2584 C.3     1  UNL1        0.2350
     25 O           9.9079   41.5792    7.4478 O.3     1  UNL1       -0.4705
     26 C          11.2657   41.8999    7.3361 C.ar    1  UNL1        0.1391
     27 C          11.9401   42.6179    8.3360 C.ar    1  UNL1        0.0382
     28 C          13.2950   42.9268    8.1901 C.ar    1  UNL1        0.0178
     29 C          13.9934   42.5235    7.0475 C.ar    1  UNL1        0.0505
     30 C          13.3190   41.8032    6.0504 C.ar    1  UNL1        0.0178
     31 C          11.9639   41.4937    6.1952 C.ar    1  UNL1        0.0382
     32 C          15.9508   43.8889    6.1130 C.2     1  UNL1        0.2266
     33 C          17.4221   44.0953    6.1207 C.3     1  UNL1        0.0949
     34 N          15.3828   42.8603    6.9334 N.am    1  UNL1       -0.2839
     35 O          15.2286   44.6214    5.3865 O.2     1  UNL1       -0.2748
     36 H          16.0113   42.3300    7.4747 H       1  UNL1        0.1549
@<TRIPOS>BOND
     1    20    21    1
     2    18    21    1
     3    18    19    1
     4    18    12    1
     5     7    14    1
     6     8    13    1
     7     8     9    1
     8     9    11    1
     9    10     1    1
    10     2     3   ar
    11     4    23    1
    12     4     5   ar
    13    22    23    1
    14    24     5    1
    15    24    25    1
    16    26    25    1
    17    27    28   ar
    18    29    34    1
    19    29    30   ar
    20    33    32    1
    21    31    26   ar
    22     6     1   ar
    23    11    12   am
    24    12     7    1
    25    34    32   am
    26     7    13    2
    27     8    15    2
    28     9    10    2
    29     1     2   ar
    30     3     4   ar
    31     5     6   ar
    32    26    27   ar
    33    28    29   ar
    34    32    35    2
    35    30    31   ar
    36    11    16    2
    37    34    36    1
    38    14    17    1
@<TRIPOS>MOLECULE
MolPort-000-841-011 CSSS00132831161
 36 38 0 0 0
SMALL
GASTEIGER

@<TRIPOS>ATOM
      1 C          11.1875   40.6888    6.6458 C.ar    1  UNL1        0.0003
      2 C          10.8757   39.3621    6.3517 C.ar    1  UNL1        0.0031
      3 C           9.5843   39.0158    5.9512 C.ar    1  UNL1        0.0367
      4 C           8.5748   39.9807    5.8513 C.ar    1  UNL1        0.1382
      5 C           8.8837   41.3297    6.1744 C.ar    1  UNL1        0.0551
      6 C          10.1806   41.6578    6.5886 C.ar    1  UNL1        0.0023
      7 C          14.5374   39.5097   10.5420 C.2     1  UNL1        0.1533
      8 C          12.4781   39.8244    9.3354 C.2     1  UNL1        0.2749
      9 C          13.1416   40.5814    8.2502 C.2     1  UNL1        0.1092
     10 C          12.5391   41.0140    7.1273 C.2     1  UNL1        0.0092
     11 C          14.5613   40.9050    8.4678 C.2     1  UNL1        0.2584
     12 N          15.2516   40.3614    9.6084 N.am    1  UNL1       -0.2391
     13 N          13.2646   39.2871   10.4021 N.am    1  UNL1       -0.1546
     14 S          15.3605   38.7474   11.9438 S.3     1  UNL1       -0.1099
     15 O          11.2268   39.6946    9.3811 O.2     1  UNL1       -0.2678
     16 O          15.1754   41.6456    7.6493 O.2     1  UNL1       -0.2694
     17 H          16.6780   39.0845   11.9341 H       1  UNL1        0.1096
     18 C          16.6706   40.7046    9.7729 C.3     1  UNL1        0.0818
     19 C          17.0248   41.9788    9.0265 C.3     1  UNL1        0.0220
     20 C          18.4345   39.1242   10.5579 C.3     1  UNL1        0.0018
     21 C          17.5895   39.5576    9.3756 C.3     1  UNL1        0.0202
     22 C           6.1022   39.6627    6.1642 C.3     1  UNL1        0.2525
     23 O           7.3125   39.5271    5.4340 O.3     1  UNL1       -0.4716
     24 C           7.8798   42.4396    6.1069 C.3     1  UNL1        0.2350
     25 O           8.0795   43.3740    7.1658 O.3     1  UNL1       -0.4705
     26 C           8.4973   43.0101    8.4510 C.ar    1  UNL1        0.1391
     27 C           9.5400   43.6826    9.1072 C.ar    1  UNL1        0.0382
     28 C           9.9364   43.2896   10.3882 C.ar    1  UNL1        0.0178
     29 C           9.2983   42.2236   11.0302 C.ar    1  UNL1        0.0505
     30 C           8.2542   41.5544   10.3746 C.ar    1  UNL1        0.0178
     31 C           7.8569   41.9464    9.0934 C.ar    1  UNL1        0.0382
     32 C           8.9739   41.1377   13.3291 C.2     1  UNL1        0.2266
     33 C           9.5920   40.8360   14.6460 C.3     1  UNL1        0.0949
     34 N           9.7341   41.8490   12.3442 N.am    1  UNL1       -0.2839
     35 O           7.7935   40.7630   13.1009 O.2     1  UNL1       -0.2748
     36 H          10.6502   42.1073   12.5957 H       1  UNL1        0.1549
@<TRIPOS>BOND
     1    20    21    1
     2    18    21    1
     3    18    19    1
     4    18    12    1
     5     7    14    1
     6     8    13    1
     7     8     9    1
     8     9    11    1
     9    10     1    1
    10     2     3   ar
    11     4    23    1
    12     4     5   ar
    13    22    23    1
    14    24     5    1
    15    24    25    1
    16    26    25    1
    17    27    28   ar
    18    29    34    1
    19    29    30   ar
    20    33    32    1
    21    31    26   ar
    22     6     1   ar
    23    11    12   am
    24    12     7    1
    25    34    32   am
    26     7    13    2
    27     8    15    2
    28     9    10    2
    29     1     2   ar
    30     3     4   ar
    31     5     6   ar
    32    26    27   ar
    33    28    29   ar
    34    32    35    2
    35    30    31   ar
    36    11    16    2
    37    34    36    1
    38    14    17    1
@<TRIPOS>MOLECULE
MolPort-000-841-011 CSSS00132831161
 36 38 0 0 0
SMALL
GASTEIGER

@<TRIPOS>ATOM
      1 C           8.7404   40.3465    7.1312 C.ar    1  UNL1        0.0003
      2 C           8.4368   39.3141    6.2446 C.ar    1  UNL1        0.0031
      3 C           9.3000   39.0179    5.1886 C.ar    1  UNL1        0.0367
      4 C          10.4736   39.7537    4.9856 C.ar    1  UNL1        0.1382
      5 C          10.7730   40.8225    5.8732 C.ar    1  UNL1        0.0551
      6 C           9.8889   41.1159    6.9189 C.ar    1  UNL1        0.0023
      7 C           4.7920   43.6753    8.1905 C.2     1  UNL1        0.1533
      8 C           6.7997   42.7699    7.2183 C.2     1  UNL1        0.2749
      9 C           6.8777   41.6756    8.2119 C.2     1  UNL1        0.1092
     10 C           7.7806   40.6778    8.1958 C.2     1  UNL1        0.0092
     11 C           5.9026   41.7373    9.3133 C.2     1  UNL1        0.2584
     12 N           4.8621   42.7323    9.2918 N.am    1  UNL1       -0.2391
     13 N           5.6974   43.6800    7.2580 N.am    1  UNL1       -0.1546
     14 S           3.4783   44.8934    8.0731 S.3     1  UNL1       -0.1099
     15 O           7.7141   42.9630    6.3749 O.2     1  UNL1       -0.2678
     16 O           5.9701   40.9116   10.2668 O.2     1  UNL1       -0.2694
     17 H           2.6269   44.7446    9.1232 H       1  UNL1        0.1096
     18 C           3.9071   42.7431   10.4081 C.3     1  UNL1        0.0818
     19 C           4.4908   42.0848   11.6459 C.3     1  UNL1        0.0220
     20 C           2.7886   40.8788    9.1840 C.3     1  UNL1        0.0018
     21 C           2.5712   42.1196   10.0283 C.3     1  UNL1        0.0202
     22 C          11.2294   38.1113    3.2409 C.3     1  UNL1        0.2525
     23 O          11.2745   39.3697    3.8973 O.3     1  UNL1       -0.4716
     24 C          11.9973   41.6762    5.7452 C.3     1  UNL1        0.2350
     25 O          12.4131   42.1671    7.0182 O.3     1  UNL1       -0.4705
     26 C          13.5883   41.7586    7.6592 C.ar    1  UNL1        0.1391
     27 C          14.8202   42.3848    7.4130 C.ar    1  UNL1        0.0382
     28 C          15.9759   41.9481    8.0657 C.ar    1  UNL1        0.0178
     29 C          15.9177   40.8840    8.9713 C.ar    1  UNL1        0.0505
     30 C          14.6853   40.2612    9.2189 C.ar    1  UNL1        0.0178
     31 C          13.5287   40.6970    8.5666 C.ar    1  UNL1        0.0382
     32 C          17.3675   39.1956   10.2427 C.2     1  UNL1        0.2266
     33 C          18.6880   38.9349   10.8719 C.3     1  UNL1        0.0949
     34 N          17.1254   40.4638    9.6207 N.am    1  UNL1       -0.2839
     35 O          16.4846   38.2980   10.2663 O.2     1  UNL1       -0.2748
     36 H          17.8645   41.1138    9.6413 H       1  UNL1        0.1549
@<TRIPOS>BOND
     1    20    21    1
     2    18    21    1
     3    18    19    1
     4    18    12    1
     5     7    14    1
     6     8    13    1
     7     8     9    1
     8     9    11    1
     9    10     1    1
    10     2     3   ar
    11     4    23    1
    12     4     5   ar
    13    22    23    1
    14    24     5    1
    15    24    25    1
    16    26    25    1
    17    27    28   ar
    18    29    34    1
    19    29    30   ar
    20    33    32    1
    21    31    26   ar
    22     6     1   ar
    23    11    12   am
    24    12     7    1
    25    34    32   am
    26     7    13    2
    27     8    15    2
    28     9    10    2
    29     1     2   ar
    30     3     4   ar
    31     5     6   ar
    32    26    27   ar
    33    28    29   ar
    34    32    35    2
    35    30    31   ar
    36    11    16    2
    37    34    36    1
    38    14    17    1
