@<TRIPOS>MOLECULE
MolPort-009-692-461 9001749 CSSS00106926447 MCULE-7088930081 PubChem-16952129 VPBKKCCBLFWVNP-UHFFFAOYSA-N ZINC000009001749 ZINC09001749
 30 33 0 0 0
SMALL
GASTEIGER

@<TRIPOS>ATOM
      1 C           3.8546   41.6366   12.2857 C.ar    1  UNL1        0.1659
      2 C           2.1787   40.1429   12.4632 C.ar    1  UNL1        0.0923
      3 C           1.5835   41.2394   13.1150 C.ar    1  UNL1        0.0886
      4 N           3.4409   40.3821   12.0082 N.ar    1  UNL1       -0.2238
      5 S           2.6850   42.5175   13.0983 S.2     1  UNL1       -0.0481
      6 C           1.5685   38.8049   12.3008 C.ar    1  UNL1        0.0183
      7 C           1.5730   38.1443   11.0625 C.ar    1  UNL1        0.0015
      8 C           0.9569   36.8977   10.9203 C.ar    1  UNL1        0.0000
      9 C           0.3199   36.3050   12.0133 C.ar    1  UNL1        0.0000
     10 C           0.2950   36.9612   13.2463 C.ar    1  UNL1        0.0000
     11 C           0.9120   38.2077   13.3873 C.ar    1  UNL1        0.0015
     12 C           6.1523   41.4318   11.2240 C.2     1  UNL1        0.2704
     13 N           5.1359   42.1599   11.9236 N.am    1  UNL1       -0.2593
     14 O           5.9625   40.2355   10.8749 O.2     1  UNL1       -0.2680
     15 H           5.3342   43.0911   12.1741 H       1  UNL1        0.1571
     16 C          10.8923   41.9836   10.1537 C.3     1  UNL1        0.1533
     17 C           7.4285   42.0837   10.9099 C.ar    1  UNL1        0.1555
     18 C           7.6221   43.4554   10.7966 C.ar    1  UNL1        0.0398
     19 C           8.9682   43.5431   10.4962 C.ar    1  UNL1        0.0577
     20 C           9.7148   44.8121   10.2668 C.3     1  UNL1        0.0518
     21 N           9.5064   42.3127   10.4413 N.ar    1  UNL1       -0.2527
     22 N           8.5766   41.4110   10.6922 N.ar    1  UNL1       -0.1649
     23 C           0.1849   41.3631   13.5770 C.2     1  UNL1        0.2030
     24 O          -0.5247   40.3234   13.6523 O.2     1  UNL1       -0.2860
     25 C          -0.4132   42.6725   13.9203 C.ar    1  UNL1        0.0395
     26 C          -1.2080   42.8291   15.0667 C.ar    1  UNL1        0.0032
     27 C          -1.7820   44.0671   15.3695 C.ar    1  UNL1        0.0001
     28 C          -1.5711   45.1597   14.5251 C.ar    1  UNL1        0.0000
     29 C          -0.7884   45.0138   13.3772 C.ar    1  UNL1        0.0001
     30 C          -0.2145   43.7753   13.0753 C.ar    1  UNL1        0.0032
@<TRIPOS>BOND
     1    16    21    1
     2    17    18   ar
     3    17    12    1
     4    19    21   ar
     5    20    19    1
     6    12    13   am
     7     1     5   ar
     8     2     4   ar
     9     2     6    1
    10     3     5   ar
    11     3    23    1
    12    23    25    1
    13    26    27   ar
    14    28    29   ar
    15    30    25   ar
    16     7     8   ar
    17     9    10   ar
    18    11     6   ar
    19    21    22   ar
    20    13     1    1
    21    17    22   ar
    22    18    19   ar
    23    12    14    2
    24     1     4   ar
    25     2     3   ar
    26    23    24    2
    27    25    26   ar
    28    27    28   ar
    29    29    30   ar
    30     6     7   ar
    31     8     9   ar
    32    10    11   ar
    33    13    15    1
@<TRIPOS>MOLECULE
MolPort-009-692-461 9001749 CSSS00106926447 MCULE-7088930081 PubChem-16952129 VPBKKCCBLFWVNP-UHFFFAOYSA-N ZINC000009001749 ZINC09001749
 30 33 0 0 0
SMALL
GASTEIGER

@<TRIPOS>ATOM
      1 C           4.0903   42.5180    9.7739 C.ar    1  UNL1        0.1659
      2 C           5.7597   41.7132    8.4945 C.ar    1  UNL1        0.0923
      3 C           6.1007   43.0790    8.4905 C.ar    1  UNL1        0.0886
      4 N           4.6397   41.4199    9.2135 N.ar    1  UNL1       -0.2238
      5 S           4.9595   43.9047    9.4194 S.2     1  UNL1       -0.0481
      6 C           6.4753   40.6466    7.7603 C.ar    1  UNL1        0.0183
      7 C           7.6999   40.1375    8.2194 C.ar    1  UNL1        0.0015
      8 C           8.3796   39.1573    7.4907 C.ar    1  UNL1        0.0000
      9 C           7.8461   38.6853    6.2890 C.ar    1  UNL1        0.0000
     10 C           6.6360   39.1968    5.8142 C.ar    1  UNL1        0.0000
     11 C           5.9571   40.1767    6.5442 C.ar    1  UNL1        0.0015
     12 C           2.8326   41.9752   11.9123 C.2     1  UNL1        0.2704
     13 N           2.9105   42.5038   10.5829 N.am    1  UNL1       -0.2593
     14 O           3.8470   41.4705   12.4648 O.2     1  UNL1       -0.2680
     15 H           2.0897   42.8864   10.1968 H       1  UNL1        0.1571
     16 C          -0.3370   42.4354   15.6081 C.3     1  UNL1        0.1533
     17 C           1.5594   42.0205   12.6397 C.ar    1  UNL1        0.1555
     18 C           0.3046   41.8289   12.0734 C.ar    1  UNL1        0.0398
     19 C          -0.5379   41.9704   13.1597 C.ar    1  UNL1        0.0577
     20 C          -2.0230   41.8583   13.1134 C.3     1  UNL1        0.0518
     21 N           0.1807   42.2244   14.2668 N.ar    1  UNL1       -0.2527
     22 N           1.4643   42.2578   13.9636 N.ar    1  UNL1       -0.1649
     23 C           7.3274   43.7004    7.9487 C.2     1  UNL1        0.2030
     24 O           7.2347   44.4478    6.9373 O.2     1  UNL1       -0.2860
     25 C           8.6607   43.4441    8.5378 C.ar    1  UNL1        0.0395
     26 C           9.0577   44.0648    9.7326 C.ar    1  UNL1        0.0032
     27 C          10.3268   43.8282   10.2684 C.ar    1  UNL1        0.0001
     28 C          11.2137   42.9722    9.6112 C.ar    1  UNL1        0.0000
     29 C          10.8324   42.3549    8.4174 C.ar    1  UNL1        0.0001
     30 C           9.5629   42.5920    7.8822 C.ar    1  UNL1        0.0032
@<TRIPOS>BOND
     1    16    21    1
     2    17    18   ar
     3    17    12    1
     4    19    21   ar
     5    20    19    1
     6    12    13   am
     7     1     5   ar
     8     2     4   ar
     9     2     6    1
    10     3     5   ar
    11     3    23    1
    12    23    25    1
    13    26    27   ar
    14    28    29   ar
    15    30    25   ar
    16     7     8   ar
    17     9    10   ar
    18    11     6   ar
    19    21    22   ar
    20    13     1    1
    21    17    22   ar
    22    18    19   ar
    23    12    14    2
    24     1     4   ar
    25     2     3   ar
    26    23    24    2
    27    25    26   ar
    28    27    28   ar
    29    29    30   ar
    30     6     7   ar
    31     8     9   ar
    32    10    11   ar
    33    13    15    1
@<TRIPOS>MOLECULE
MolPort-009-692-461 9001749 CSSS00106926447 MCULE-7088930081 PubChem-16952129 VPBKKCCBLFWVNP-UHFFFAOYSA-N ZINC000009001749 ZINC09001749
 30 33 0 0 0
SMALL
GASTEIGER

@<TRIPOS>ATOM
      1 C           9.6518   38.5087    5.5718 C.ar    1  UNL1        0.1659
      2 C           9.5158   40.4103    6.7704 C.ar    1  UNL1        0.0923
      3 C           8.3873   40.5739    5.9450 C.ar    1  UNL1        0.0886
      4 N          10.2062   39.2563    6.5493 N.ar    1  UNL1       -0.2238
      5 S           8.2793   39.2264    4.9352 S.2     1  UNL1       -0.0481
      6 C           9.9989   41.3887    7.7695 C.ar    1  UNL1        0.0183
      7 C           9.2298   41.7265    8.8938 C.ar    1  UNL1        0.0015
      8 C           9.6867   42.6822    9.8058 C.ar    1  UNL1        0.0000
      9 C          10.9127   43.3180    9.5954 C.ar    1  UNL1        0.0000
     10 C          11.6788   43.0016    8.4709 C.ar    1  UNL1        0.0000
     11 C          11.2209   42.0452    7.5598 C.ar    1  UNL1        0.0015
     12 C          10.1184   36.7656    3.7849 C.2     1  UNL1        0.2704
     13 N          10.1664   37.2480    5.1331 N.am    1  UNL1       -0.2593
     14 O           9.5950   37.4590    2.8715 O.2     1  UNL1       -0.2680
     15 H          10.5854   36.6677    5.8091 H       1  UNL1        0.1571
     16 C          10.7514   32.4516    1.5699 C.3     1  UNL1        0.1533
     17 C          10.6833   35.4508    3.4621 C.ar    1  UNL1        0.1555
     18 C          11.7670   34.8636    4.1045 C.ar    1  UNL1        0.0398
     19 C          11.8926   33.6595    3.4380 C.ar    1  UNL1        0.0577
     20 C          12.9191   32.6200    3.7314 C.3     1  UNL1        0.0518
     21 N          10.9508   33.5636    2.4839 N.ar    1  UNL1       -0.2527
     22 N          10.2044   34.6516    2.4874 N.ar    1  UNL1       -0.1649
     23 C           7.3475   41.6204    6.0364 C.2     1  UNL1        0.2030
     24 O           7.1341   42.3546    5.0335 O.2     1  UNL1       -0.2860
     25 C           6.5763   41.8514    7.2782 C.ar    1  UNL1        0.0395
     26 C           5.9565   40.7897    7.9556 C.ar    1  UNL1        0.0032
     27 C           5.2155   41.0243    9.1174 C.ar    1  UNL1        0.0001
     28 C           5.0827   42.3247    9.6102 C.ar    1  UNL1        0.0000
     29 C           5.6887   43.3902    8.9400 C.ar    1  UNL1        0.0001
     30 C           6.4296   43.1546    7.7782 C.ar    1  UNL1        0.0032
@<TRIPOS>BOND
     1    16    21    1
     2    17    18   ar
     3    17    12    1
     4    19    21   ar
     5    20    19    1
     6    12    13   am
     7     1     5   ar
     8     2     4   ar
     9     2     6    1
    10     3     5   ar
    11     3    23    1
    12    23    25    1
    13    26    27   ar
    14    28    29   ar
    15    30    25   ar
    16     7     8   ar
    17     9    10   ar
    18    11     6   ar
    19    21    22   ar
    20    13     1    1
    21    17    22   ar
    22    18    19   ar
    23    12    14    2
    24     1     4   ar
    25     2     3   ar
    26    23    24    2
    27    25    26   ar
    28    27    28   ar
    29    29    30   ar
    30     6     7   ar
    31     8     9   ar
    32    10    11   ar
    33    13    15    1
@<TRIPOS>MOLECULE
MolPort-009-692-461 9001749 CSSS00106926447 MCULE-7088930081 PubChem-16952129 VPBKKCCBLFWVNP-UHFFFAOYSA-N ZINC000009001749 ZINC09001749
 30 33 0 0 0
SMALL
GASTEIGER

@<TRIPOS>ATOM
      1 C           4.6492   40.5394   11.0011 C.ar    1  UNL1        0.1659
      2 C           5.5738   41.5271    9.2009 C.ar    1  UNL1        0.0923
      3 C           4.4536   42.3616    9.3749 C.ar    1  UNL1        0.0886
      4 N           5.6665   40.5200   10.1144 N.ar    1  UNL1       -0.2238
      5 S           3.5879   41.8017   10.7106 S.2     1  UNL1       -0.0481
      6 C           6.5696   41.6411    8.1127 C.ar    1  UNL1        0.0183
      7 C           7.9320   41.8392    8.3857 C.ar    1  UNL1        0.0015
      8 C           8.8516   41.9834    7.3430 C.ar    1  UNL1        0.0000
      9 C           8.4152   41.9426    6.0166 C.ar    1  UNL1        0.0000
     10 C           7.0592   41.7624    5.7335 C.ar    1  UNL1        0.0000
     11 C           6.1405   41.6178    6.7773 C.ar    1  UNL1        0.0015
     12 C           5.5602   39.1146   12.8956 C.2     1  UNL1        0.2704
     13 N           4.4951   39.6007   12.0697 N.am    1  UNL1       -0.2593
     14 O           6.7447   39.5064   12.7154 O.2     1  UNL1       -0.2680
     15 H           3.5883   39.2631   12.2513 H       1  UNL1        0.1571
     16 C           6.1289   35.3602   15.9775 C.3     1  UNL1        0.1533
     17 C           5.2712   38.1503   13.9627 C.ar    1  UNL1        0.1555
     18 C           4.1094   38.1219   14.7252 C.ar    1  UNL1        0.0398
     19 C           4.3316   37.0493   15.5678 C.ar    1  UNL1        0.0577
     20 C           3.3828   36.5672   16.6109 C.3     1  UNL1        0.0518
     21 N           5.5319   36.5033   15.3078 N.ar    1  UNL1       -0.2527
     22 N           6.1173   37.1664   14.3288 N.ar    1  UNL1       -0.1649
     23 C           4.1493   43.6220    8.6652 C.2     1  UNL1        0.2030
     24 O           2.9471   43.9900    8.5680 O.2     1  UNL1       -0.2860
     25 C           5.2092   44.4434    8.0392 C.ar    1  UNL1        0.0395
     26 C           6.4396   44.6530    8.6817 C.ar    1  UNL1        0.0032
     27 C           7.4253   45.4462    8.0876 C.ar    1  UNL1        0.0001
     28 C           7.1877   46.0425    6.8468 C.ar    1  UNL1        0.0000
     29 C           5.9641   45.8473    6.2017 C.ar    1  UNL1        0.0001
     30 C           4.9789   45.0537    6.7965 C.ar    1  UNL1        0.0032
@<TRIPOS>BOND
     1    16    21    1
     2    17    18   ar
     3    17    12    1
     4    19    21   ar
     5    20    19    1
     6    12    13   am
     7     1     5   ar
     8     2     4   ar
     9     2     6    1
    10     3     5   ar
    11     3    23    1
    12    23    25    1
    13    26    27   ar
    14    28    29   ar
    15    30    25   ar
    16     7     8   ar
    17     9    10   ar
    18    11     6   ar
    19    21    22   ar
    20    13     1    1
    21    17    22   ar
    22    18    19   ar
    23    12    14    2
    24     1     4   ar
    25     2     3   ar
    26    23    24    2
    27    25    26   ar
    28    27    28   ar
    29    29    30   ar
    30     6     7   ar
    31     8     9   ar
    32    10    11   ar
    33    13    15    1
@<TRIPOS>MOLECULE
MolPort-009-692-461 9001749 CSSS00106926447 MCULE-7088930081 PubChem-16952129 VPBKKCCBLFWVNP-UHFFFAOYSA-N ZINC000009001749 ZINC09001749
 30 33 0 0 0
SMALL
GASTEIGER

@<TRIPOS>ATOM
      1 C          12.0915   39.6644    9.6167 C.ar    1  UNL1        0.1659
      2 C          13.5845   37.9788    9.6415 C.ar    1  UNL1        0.0923
      3 C          14.2191   38.8652   10.5322 C.ar    1  UNL1        0.0886
      4 N          12.4028   38.4395    9.1431 N.ar    1  UNL1       -0.2238
      5 S          13.2512   40.2395   10.6791 S.2     1  UNL1       -0.0481
      6 C          14.1227   36.6737    9.1987 C.ar    1  UNL1        0.0183
      7 C          15.1256   36.5900    8.2205 C.ar    1  UNL1        0.0015
      8 C          15.5934   35.3460    7.7876 C.ar    1  UNL1        0.0000
      9 C          15.0536   34.1730    8.3209 C.ar    1  UNL1        0.0000
     10 C          14.0433   34.2444    9.2830 C.ar    1  UNL1        0.0000
     11 C          13.5769   35.4892    9.7155 C.ar    1  UNL1        0.0015
     12 C           9.9975   40.0125    8.2228 C.2     1  UNL1        0.2704
     13 N          10.9084   40.3870    9.2633 N.am    1  UNL1       -0.2593
     14 O          10.2004   38.9784    7.5311 O.2     1  UNL1       -0.2680
     15 H          10.7048   41.2037    9.7740 H       1  UNL1        0.1571
     16 C           6.9628   43.0993    5.9469 C.3     1  UNL1        0.1533
     17 C           8.8157   40.8403    7.9578 C.ar    1  UNL1        0.1555
     18 C           7.7137   40.9573    8.7968 C.ar    1  UNL1        0.0398
     19 C           6.9020   41.8344    8.1027 C.ar    1  UNL1        0.0577
     20 C           5.5672   42.3128    8.5609 C.3     1  UNL1        0.0518
     21 N           7.4946   42.1935    6.9511 N.ar    1  UNL1       -0.2527
     22 N           8.6652   41.5933    6.8495 N.ar    1  UNL1       -0.1649
     23 C          15.4160   38.6081   11.3604 C.2     1  UNL1        0.2030
     24 O          15.2805   38.5073   12.6101 O.2     1  UNL1       -0.2860
     25 C          16.7684   38.4992   10.7692 C.ar    1  UNL1        0.0395
     26 C          17.4739   37.2858   10.7898 C.ar    1  UNL1        0.0032
     27 C          18.7580   37.2014   10.2442 C.ar    1  UNL1        0.0001
     28 C          19.3515   38.3317    9.6773 C.ar    1  UNL1        0.0000
     29 C          18.6620   39.5466    9.6581 C.ar    1  UNL1        0.0001
     30 C          17.3777   39.6301   10.2038 C.ar    1  UNL1        0.0032
@<TRIPOS>BOND
     1    16    21    1
     2    17    18   ar
     3    17    12    1
     4    19    21   ar
     5    20    19    1
     6    12    13   am
     7     1     5   ar
     8     2     4   ar
     9     2     6    1
    10     3     5   ar
    11     3    23    1
    12    23    25    1
    13    26    27   ar
    14    28    29   ar
    15    30    25   ar
    16     7     8   ar
    17     9    10   ar
    18    11     6   ar
    19    21    22   ar
    20    13     1    1
    21    17    22   ar
    22    18    19   ar
    23    12    14    2
    24     1     4   ar
    25     2     3   ar
    26    23    24    2
    27    25    26   ar
    28    27    28   ar
    29    29    30   ar
    30     6     7   ar
    31     8     9   ar
    32    10    11   ar
    33    13    15    1
@<TRIPOS>MOLECULE
MolPort-009-692-461 9001749 CSSS00106926447 MCULE-7088930081 PubChem-16952129 VPBKKCCBLFWVNP-UHFFFAOYSA-N ZINC000009001749 ZINC09001749
 30 33 0 0 0
SMALL
GASTEIGER

@<TRIPOS>ATOM
      1 C          10.8254   41.8586    8.2122 C.ar    1  UNL1        0.1659
      2 C          13.0158   42.0507    7.7260 C.ar    1  UNL1        0.0923
      3 C          13.0719   40.9756    8.6330 C.ar    1  UNL1        0.0886
      4 N          11.7589   42.5283    7.5038 N.ar    1  UNL1       -0.2238
      5 S          11.4987   40.6397    9.1423 S.2     1  UNL1       -0.0481
      6 C          14.1821   42.6908    7.0788 C.ar    1  UNL1        0.0183
      7 C          15.3875   42.8849    7.7710 C.ar    1  UNL1        0.0015
      8 C          16.4653   43.5268    7.1543 C.ar    1  UNL1        0.0000
      9 C          16.3433   43.9913    5.8424 C.ar    1  UNL1        0.0000
     10 C          15.1426   43.8182    5.1497 C.ar    1  UNL1        0.0000
     11 C          14.0658   43.1756    5.7675 C.ar    1  UNL1        0.0015
     12 C           8.7375   43.0151    9.0795 C.2     1  UNL1        0.2704
     13 N           9.4246   42.1461    8.1710 N.am    1  UNL1       -0.2593
     14 O           9.3603   43.5992   10.0069 O.2     1  UNL1       -0.2680
     15 H           8.8922   41.7138    7.4647 H       1  UNL1        0.1571
     16 C           3.9173   42.3688    9.5945 C.3     1  UNL1        0.1533
     17 C           7.2937   43.2286    8.9308 C.ar    1  UNL1        0.1555
     18 C           6.7054   44.2409    8.1819 C.ar    1  UNL1        0.0398
     19 C           5.3566   44.0042    8.3675 C.ar    1  UNL1        0.0577
     20 C           4.2544   44.8124    7.7739 C.3     1  UNL1        0.0518
     21 N           5.1844   42.9353    9.1641 N.ar    1  UNL1       -0.2527
     22 N           6.3602   42.4512    9.5159 N.ar    1  UNL1       -0.1649
     23 C          14.2423   40.1363    8.9651 C.2     1  UNL1        0.2030
     24 O          15.3958   40.5655    8.6905 O.2     1  UNL1       -0.2860
     25 C          14.0967   38.7973    9.5783 C.ar    1  UNL1        0.0395
     26 C          13.8125   37.6674    8.7952 C.ar    1  UNL1        0.0032
     27 C          13.6592   36.4115    9.3893 C.ar    1  UNL1        0.0001
     28 C          13.7833   36.2743   10.7739 C.ar    1  UNL1        0.0000
     29 C          14.0582   37.3930   11.5642 C.ar    1  UNL1        0.0001
     30 C          14.2115   38.6486   10.9692 C.ar    1  UNL1        0.0032
@<TRIPOS>BOND
     1    16    21    1
     2    17    18   ar
     3    17    12    1
     4    19    21   ar
     5    20    19    1
     6    12    13   am
     7     1     5   ar
     8     2     4   ar
     9     2     6    1
    10     3     5   ar
    11     3    23    1
    12    23    25    1
    13    26    27   ar
    14    28    29   ar
    15    30    25   ar
    16     7     8   ar
    17     9    10   ar
    18    11     6   ar
    19    21    22   ar
    20    13     1    1
    21    17    22   ar
    22    18    19   ar
    23    12    14    2
    24     1     4   ar
    25     2     3   ar
    26    23    24    2
    27    25    26   ar
    28    27    28   ar
    29    29    30   ar
    30     6     7   ar
    31     8     9   ar
    32    10    11   ar
    33    13    15    1
@<TRIPOS>MOLECULE
MolPort-009-692-461 9001749 CSSS00106926447 MCULE-7088930081 PubChem-16952129 VPBKKCCBLFWVNP-UHFFFAOYSA-N ZINC000009001749 ZINC09001749
 30 33 0 0 0
SMALL
GASTEIGER

@<TRIPOS>ATOM
      1 C          11.1179   38.2502    4.8187 C.ar    1  UNL1        0.1659
      2 C          11.3797   40.3195    5.6676 C.ar    1  UNL1        0.0923
      3 C          10.0137   40.3764    5.3321 C.ar    1  UNL1        0.0886
      4 N          11.9769   39.1298    5.3756 N.ar    1  UNL1       -0.2238
      5 S           9.5778   38.8894    4.6643 S.2     1  UNL1       -0.0481
      6 C          12.1719   41.4321    6.2363 C.ar    1  UNL1        0.0183
      7 C          12.8954   42.3098    5.4142 C.ar    1  UNL1        0.0015
      8 C          13.6691   43.3311    5.9730 C.ar    1  UNL1        0.0000
      9 C          13.7360   43.4766    7.3608 C.ar    1  UNL1        0.0000
     10 C          13.0331   42.5983    8.1890 C.ar    1  UNL1        0.0000
     11 C          12.2592   41.5778    7.6288 C.ar    1  UNL1        0.0015
     12 C          10.6430   36.0532    3.6370 C.2     1  UNL1        0.2704
     13 N          11.4731   36.9248    4.4141 N.am    1  UNL1       -0.2593
     14 O           9.5021   36.4255    3.2513 O.2     1  UNL1       -0.2680
     15 H          12.3551   36.5859    4.6906 H       1  UNL1        0.1571
     16 C          10.9267   31.7068    1.4131 C.3     1  UNL1        0.1533
     17 C          11.1240   34.7125    3.2857 C.ar    1  UNL1        0.1555
     18 C          12.2203   34.0781    3.8578 C.ar    1  UNL1        0.0398
     19 C          12.2454   32.8671    3.1924 C.ar    1  UNL1        0.0577
     20 C          13.2404   31.7822    3.4232 C.3     1  UNL1        0.0518
     21 N          11.2380   32.8115    2.3043 N.ar    1  UNL1       -0.2527
     22 N          10.5444   33.9329    2.3506 N.ar    1  UNL1       -0.1649
     23 C           9.0489   41.4475    5.6586 C.2     1  UNL1        0.2030
     24 O           9.0986   42.5286    5.0114 O.2     1  UNL1       -0.2860
     25 C           8.0519   41.2993    6.7423 C.ar    1  UNL1        0.0395
     26 C           6.8161   40.6750    6.5110 C.ar    1  UNL1        0.0032
     27 C           5.8759   40.5580    7.5387 C.ar    1  UNL1        0.0001
     28 C           6.1607   41.0695    8.8071 C.ar    1  UNL1        0.0000
     29 C           7.3842   41.6997    9.0468 C.ar    1  UNL1        0.0001
     30 C           8.3239   41.8162    8.0185 C.ar    1  UNL1        0.0032
@<TRIPOS>BOND
     1    16    21    1
     2    17    18   ar
     3    17    12    1
     4    19    21   ar
     5    20    19    1
     6    12    13   am
     7     1     5   ar
     8     2     4   ar
     9     2     6    1
    10     3     5   ar
    11     3    23    1
    12    23    25    1
    13    26    27   ar
    14    28    29   ar
    15    30    25   ar
    16     7     8   ar
    17     9    10   ar
    18    11     6   ar
    19    21    22   ar
    20    13     1    1
    21    17    22   ar
    22    18    19   ar
    23    12    14    2
    24     1     4   ar
    25     2     3   ar
    26    23    24    2
    27    25    26   ar
    28    27    28   ar
    29    29    30   ar
    30     6     7   ar
    31     8     9   ar
    32    10    11   ar
    33    13    15    1
@<TRIPOS>MOLECULE
MolPort-009-692-461 9001749 CSSS00106926447 MCULE-7088930081 PubChem-16952129 VPBKKCCBLFWVNP-UHFFFAOYSA-N ZINC000009001749 ZINC09001749
 30 33 0 0 0
SMALL
GASTEIGER

@<TRIPOS>ATOM
      1 C          10.8822   41.3601    9.9323 C.ar    1  UNL1        0.1659
      2 C           8.6732   41.7970    9.9085 C.ar    1  UNL1        0.0923
      3 C           9.1698   43.0947    9.6830 C.ar    1  UNL1        0.0886
      4 N           9.6395   40.8455   10.0440 N.ar    1  UNL1       -0.2238
      5 S          10.8548   43.0111    9.6534 S.2     1  UNL1       -0.0481
      6 C           7.2457   41.4361   10.0529 C.ar    1  UNL1        0.0183
      7 C           6.4555   41.1169    8.9378 C.ar    1  UNL1        0.0015
      8 C           5.0990   40.8165    9.0912 C.ar    1  UNL1        0.0000
      9 C           4.5170   40.8442   10.3609 C.ar    1  UNL1        0.0000
     10 C           5.2903   41.1768   11.4757 C.ar    1  UNL1        0.0000
     11 C           6.6470   41.4764   11.3210 C.ar    1  UNL1        0.0015
     12 C          12.1472   39.1591    9.9979 C.2     1  UNL1        0.2704
     13 N          12.0839   40.5901   10.0310 N.am    1  UNL1       -0.2593
     14 O          11.0982   38.4710    9.8750 O.2     1  UNL1       -0.2680
     15 H          12.9317   41.0807   10.1291 H       1  UNL1        0.1571
     16 C          15.8417   36.1074    9.0208 C.3     1  UNL1        0.1533
     17 C          13.4458   38.4856   10.1086 C.ar    1  UNL1        0.1555
     18 C          14.4115   38.7583   11.0703 C.ar    1  UNL1        0.0398
     19 C          15.4190   37.8713   10.7416 C.ar    1  UNL1        0.0577
     20 C          16.7147   37.7387   11.4654 C.3     1  UNL1        0.0518
     21 N          15.0577   37.1441    9.6705 N.ar    1  UNL1       -0.2527
     22 N          13.8537   37.5090    9.2732 N.ar    1  UNL1       -0.1649
     23 C           8.3989   44.3078    9.3383 C.2     1  UNL1        0.2030
     24 O           8.7171   45.4035    9.8755 O.2     1  UNL1       -0.2860
     25 C           7.2475   44.2660    8.4095 C.ar    1  UNL1        0.0395
     26 C           5.9746   44.7005    8.8115 C.ar    1  UNL1        0.0032
     27 C           4.8916   44.6383    7.9300 C.ar    1  UNL1        0.0001
     28 C           5.0701   44.1357    6.6389 C.ar    1  UNL1        0.0000
     29 C           6.3306   43.6932    6.2304 C.ar    1  UNL1        0.0001
     30 C           7.4132   43.7558    7.1126 C.ar    1  UNL1        0.0032
@<TRIPOS>BOND
     1    16    21    1
     2    17    18   ar
     3    17    12    1
     4    19    21   ar
     5    20    19    1
     6    12    13   am
     7     1     5   ar
     8     2     4   ar
     9     2     6    1
    10     3     5   ar
    11     3    23    1
    12    23    25    1
    13    26    27   ar
    14    28    29   ar
    15    30    25   ar
    16     7     8   ar
    17     9    10   ar
    18    11     6   ar
    19    21    22   ar
    20    13     1    1
    21    17    22   ar
    22    18    19   ar
    23    12    14    2
    24     1     4   ar
    25     2     3   ar
    26    23    24    2
    27    25    26   ar
    28    27    28   ar
    29    29    30   ar
    30     6     7   ar
    31     8     9   ar
    32    10    11   ar
    33    13    15    1
@<TRIPOS>MOLECULE
MolPort-009-692-461 9001749 CSSS00106926447 MCULE-7088930081 PubChem-16952129 VPBKKCCBLFWVNP-UHFFFAOYSA-N ZINC000009001749 ZINC09001749
 30 33 0 0 0
SMALL
GASTEIGER

@<TRIPOS>ATOM
      1 C          11.0797   40.9914   10.1184 C.ar    1  UNL1        0.1659
      2 C           9.1929   42.0111    9.4321 C.ar    1  UNL1        0.0923
      3 C           8.7814   41.5976   10.7133 C.ar    1  UNL1        0.0886
      4 N          10.4735   41.6660    9.1189 N.ar    1  UNL1       -0.2238
      5 S          10.0728   40.7920   11.4416 S.2     1  UNL1       -0.0481
      6 C           8.3456   42.7113    8.4418 C.ar    1  UNL1        0.0183
      7 C           7.7961   43.9742    8.7120 C.ar    1  UNL1        0.0015
      8 C           6.9663   44.6021    7.7787 C.ar    1  UNL1        0.0000
      9 C           6.6686   43.9671    6.5705 C.ar    1  UNL1        0.0000
     10 C           7.1968   42.7028    6.2982 C.ar    1  UNL1        0.0000
     11 C           8.0270   42.0762    7.2322 C.ar    1  UNL1        0.0015
     12 C          12.8009   39.1270   10.0144 C.2     1  UNL1        0.2704
     13 N          12.4254   40.5088   10.0631 N.am    1  UNL1       -0.2593
     14 O          11.9242   38.2212   10.0185 O.2     1  UNL1       -0.2680
     15 H          13.1483   41.1770   10.0582 H       1  UNL1        0.1571
     16 C          16.8424   36.5015    9.1835 C.3     1  UNL1        0.1533
     17 C          14.2203   38.7604    9.9595 C.ar    1  UNL1        0.1555
     18 C          15.2735   39.5652   10.3777 C.ar    1  UNL1        0.0398
     19 C          16.3758   38.7729   10.1186 C.ar    1  UNL1        0.0577
     20 C          17.7904   39.1584   10.3841 C.3     1  UNL1        0.0518
     21 N          15.9835   37.6007    9.5907 N.ar    1  UNL1       -0.2527
     22 N          14.6684   37.5793    9.4879 N.ar    1  UNL1       -0.1649
     23 C           7.5271   41.9454   11.4134 C.2     1  UNL1        0.2030
     24 O           7.5878   42.6597   12.4508 O.2     1  UNL1       -0.2860
     25 C           6.2102   41.4528   10.9514 C.ar    1  UNL1        0.0395
     26 C           5.3504   40.7589   11.8172 C.ar    1  UNL1        0.0032
     27 C           4.1172   40.2829   11.3628 C.ar    1  UNL1        0.0001
     28 C           3.7341   40.4918   10.0358 C.ar    1  UNL1        0.0000
     29 C           4.5850   41.1743    9.1630 C.ar    1  UNL1        0.0001
     30 C           5.8181   41.6501    9.6183 C.ar    1  UNL1        0.0032
@<TRIPOS>BOND
     1    16    21    1
     2    17    18   ar
     3    17    12    1
     4    19    21   ar
     5    20    19    1
     6    12    13   am
     7     1     5   ar
     8     2     4   ar
     9     2     6    1
    10     3     5   ar
    11     3    23    1
    12    23    25    1
    13    26    27   ar
    14    28    29   ar
    15    30    25   ar
    16     7     8   ar
    17     9    10   ar
    18    11     6   ar
    19    21    22   ar
    20    13     1    1
    21    17    22   ar
    22    18    19   ar
    23    12    14    2
    24     1     4   ar
    25     2     3   ar
    26    23    24    2
    27    25    26   ar
    28    27    28   ar
    29    29    30   ar
    30     6     7   ar
    31     8     9   ar
    32    10    11   ar
    33    13    15    1
@<TRIPOS>MOLECULE
MolPort-009-692-461 9001749 CSSS00106926447 MCULE-7088930081 PubChem-16952129 VPBKKCCBLFWVNP-UHFFFAOYSA-N ZINC000009001749 ZINC09001749
 30 33 0 0 0
SMALL
GASTEIGER

@<TRIPOS>ATOM
      1 C          11.9643   40.9260    9.5126 C.ar    1  UNL1        0.1659
      2 C          14.1816   40.9848    9.1236 C.ar    1  UNL1        0.0923
      3 C          14.1303   39.8970   10.0157 C.ar    1  UNL1        0.0886
      4 N          12.9681   41.5439    8.8550 N.ar    1  UNL1       -0.2238
      5 S          12.5184   39.6553   10.4520 S.2     1  UNL1       -0.0481
      6 C          15.4130   41.5575    8.5368 C.ar    1  UNL1        0.0183
      7 C          16.6834   41.2195    9.0284 C.ar    1  UNL1        0.0015
      8 C          17.8328   41.8013    8.4860 C.ar    1  UNL1        0.0000
      9 C          17.7215   42.7362    7.4540 C.ar    1  UNL1        0.0000
     10 C          16.4611   43.0924    6.9681 C.ar    1  UNL1        0.0000
     11 C          15.3125   42.5094    7.5111 C.ar    1  UNL1        0.0015
     12 C           9.8286   41.3350    8.2010 C.2     1  UNL1        0.2704
     13 N          10.5874   41.3023    9.4158 N.am    1  UNL1       -0.2593
     14 O          10.3592   41.0199    7.1019 O.2     1  UNL1       -0.2680
     15 H          10.1263   41.5581   10.2472 H       1  UNL1        0.1571
     16 C           5.8066   44.0438    7.5657 C.3     1  UNL1        0.1533
     17 C           8.4189   41.7398    8.2345 C.ar    1  UNL1        0.1555
     18 C           7.3784   40.9804    8.7567 C.ar    1  UNL1        0.0398
     19 C           6.2811   41.7942    8.5482 C.ar    1  UNL1        0.0577
     20 C           4.8799   41.4586    8.9285 C.3     1  UNL1        0.0518
     21 N           6.6641   42.9356    7.9506 N.ar    1  UNL1       -0.2527
     22 N           7.9684   42.9159    7.7530 N.ar    1  UNL1       -0.1649
     23 C          15.2300   38.9811   10.3849 C.2     1  UNL1        0.2030
     24 O          15.9207   39.2413   11.4073 O.2     1  UNL1       -0.2860
     25 C          15.5628   37.7898    9.5722 C.ar    1  UNL1        0.0395
     26 C          14.6010   37.1789    8.7523 C.ar    1  UNL1        0.0032
     27 C          14.9235   36.0432    8.0040 C.ar    1  UNL1        0.0001
     28 C          16.2104   35.5040    8.0727 C.ar    1  UNL1        0.0000
     29 C          17.1735   36.0989    8.8912 C.ar    1  UNL1        0.0001
     30 C          16.8501   37.2348    9.6392 C.ar    1  UNL1        0.0032
@<TRIPOS>BOND
     1    16    21    1
     2    17    18   ar
     3    17    12    1
     4    19    21   ar
     5    20    19    1
     6    12    13   am
     7     1     5   ar
     8     2     4   ar
     9     2     6    1
    10     3     5   ar
    11     3    23    1
    12    23    25    1
    13    26    27   ar
    14    28    29   ar
    15    30    25   ar
    16     7     8   ar
    17     9    10   ar
    18    11     6   ar
    19    21    22   ar
    20    13     1    1
    21    17    22   ar
    22    18    19   ar
    23    12    14    2
    24     1     4   ar
    25     2     3   ar
    26    23    24    2
    27    25    26   ar
    28    27    28   ar
    29    29    30   ar
    30     6     7   ar
    31     8     9   ar
    32    10    11   ar
    33    13    15    1
