@<TRIPOS>MOLECULE
Molport-047-879-298 PubChem-165936795
 30 32 0 0 0
SMALL
GASTEIGER

@<TRIPOS>ATOM
      1 C          13.0189   40.8045    8.7922 C.ar    1  UNL1        0.0817
      2 C          11.8192   40.9300    9.4345 C.ar    1  UNL1        0.0509
      3 C          11.5830   40.3796   10.6911 C.ar    1  UNL1        0.0048
      4 C          12.6441   39.6747   11.2906 C.ar    1  UNL1        0.0069
      5 C          13.8890   39.5442   10.6316 C.ar    1  UNL1        0.0361
      6 C          14.0906   40.1161    9.3603 C.ar    1  UNL1        0.0255
      7 C          11.0398   41.6805    8.5835 C.ar    1  UNL1        0.1578
      8 N          12.9568   41.4456    7.6103 N.ar    1  UNL1       -0.2382
      9 N          11.7534   41.9929    7.4743 N.ar    1  UNL1       -0.1534
     10 BR         15.3079   38.5919   11.4755 Br      1  UNL1       -0.0489
     11 C           9.3026   43.1794    9.6652 C.2     1  UNL1        0.4068
     12 O          10.1732   43.8665   10.2665 O.2     1  UNL1       -0.2260
     13 N           9.6884   42.0823    8.8321 N.am    1  UNL1       -0.2336
     14 H           8.9718   41.5654    8.3978 H       1  UNL1        0.1597
     15 O           7.9448   43.4731    9.8101 O.3     1  UNL1       -0.4294
     16 C           6.9634   43.0470    8.8722 C.3     1  UNL1        0.2367
     17 C           5.7737   42.4909    9.5784 C.ar    1  UNL1        0.0213
     18 C           5.9425   41.5828   10.6298 C.ar    1  UNL1       -0.0007
     19 C           4.8262   41.0565   11.2862 C.ar    1  UNL1       -0.0002
     20 C           3.5399   41.4354   10.8898 C.ar    1  UNL1       -0.0000
     21 C           3.3699   42.3400    9.8370 C.ar    1  UNL1       -0.0002
     22 C           4.4861   42.8668    9.1812 C.ar    1  UNL1       -0.0007
     23 C          14.0328   41.5982    6.6424 C.3     1  UNL1        0.2362
     24 C          14.7356   42.8914    6.8655 C.2     1  UNL1        0.3419
     25 O          14.0705   43.9112    7.1899 O.2     1  UNL1       -0.2479
     26 O          16.1315   42.9399    6.7536 O.3     1  UNL1       -0.4544
     27 C          17.1207   44.1196    8.6286 C.3     1  UNL1        0.0437
     28 C          17.0395   42.8170    7.8502 C.3     1  UNL1        0.1363
     29 C          18.4220   42.4194    7.3624 C.3     1  UNL1        0.0437
     30 C          16.5299   41.7363    8.7797 C.3     1  UNL1        0.0437
@<TRIPOS>BOND
     1    27    28    1
     2    28    29    1
     3    28    30    1
     4    28    26    1
     5    24    26    1
     6    23    24    1
     7    23     8    1
     8     2     3   ar
     9     2     7   ar
    10     4     5   ar
    11     5    10    1
    12     6     1   ar
    13     7    13    1
    14    11    15    1
    15    16    15    1
    16    16    17    1
    17    18    19   ar
    18    20    21   ar
    19    22    17   ar
    20     8     1   ar
    21     8     9   ar
    22    13    11   am
    23    24    25    2
    24     1     2   ar
    25     3     4   ar
    26     5     6   ar
    27     7     9   ar
    28    11    12    2
    29    17    18   ar
    30    19    20   ar
    31    21    22   ar
    32    13    14    1
@<TRIPOS>MOLECULE
Molport-047-879-298 PubChem-165936795
 30 32 0 0 0
SMALL
GASTEIGER

@<TRIPOS>ATOM
      1 C          10.3000   40.4985    7.7047 C.ar    1  UNL1        0.0817
      2 C          10.6380   41.3838    6.7200 C.ar    1  UNL1        0.0509
      3 C           9.6849   42.0635    5.9669 C.ar    1  UNL1        0.0048
      4 C           8.3328   41.8030    6.2602 C.ar    1  UNL1        0.0069
      5 C           7.9772   40.8898    7.2804 C.ar    1  UNL1        0.0361
      6 C           8.9705   40.2212    8.0222 C.ar    1  UNL1        0.0255
      7 C          12.0144   41.4057    6.7220 C.ar    1  UNL1        0.1578
      8 N          11.4225   40.0104    8.2649 N.ar    1  UNL1       -0.2382
      9 N          12.4785   40.5640    7.6777 N.ar    1  UNL1       -0.1534
     10 BR          6.1373   40.5674    7.6587 Br      1  UNL1       -0.0489
     11 C          13.4009   43.4672    6.2098 C.2     1  UNL1        0.4068
     12 O          13.1806   43.9781    7.3422 O.2     1  UNL1       -0.2260
     13 N          12.8335   42.2017    5.8589 N.am    1  UNL1       -0.2336
     14 H          13.0200   41.8525    4.9575 H       1  UNL1        0.1597
     15 O          14.1962   44.1338    5.2750 O.3     1  UNL1       -0.4294
     16 C          15.5883   43.8775    5.1304 C.3     1  UNL1        0.2367
     17 C          16.1915   43.5164    6.4453 C.ar    1  UNL1        0.0213
     18 C          15.8324   42.3208    7.0778 C.ar    1  UNL1       -0.0007
     19 C          16.3931   41.9870    8.3140 C.ar    1  UNL1       -0.0002
     20 C          17.3112   42.8500    8.9204 C.ar    1  UNL1       -0.0000
     21 C          17.6681   44.0466    8.2910 C.ar    1  UNL1       -0.0002
     22 C          17.1080   44.3800    7.0546 C.ar    1  UNL1       -0.0007
     23 C          11.5081   39.0806    9.3810 C.3     1  UNL1        0.2362
     24 C          11.9270   39.8044   10.6126 C.2     1  UNL1        0.3419
     25 O          11.0665   40.4304   11.2875 O.2     1  UNL1       -0.2479
     26 O          13.2651   39.7388   11.0233 O.3     1  UNL1       -0.4544
     27 C          14.8157   38.6096    9.5380 C.3     1  UNL1        0.0437
     28 C          14.1038   38.5906   10.8804 C.3     1  UNL1        0.1363
     29 C          13.2948   37.3124   11.0183 C.3     1  UNL1        0.0437
     30 C          15.1488   38.6172   11.9754 C.3     1  UNL1        0.0437
@<TRIPOS>BOND
     1    27    28    1
     2    28    29    1
     3    28    30    1
     4    28    26    1
     5    24    26    1
     6    23    24    1
     7    23     8    1
     8     2     3   ar
     9     2     7   ar
    10     4     5   ar
    11     5    10    1
    12     6     1   ar
    13     7    13    1
    14    11    15    1
    15    16    15    1
    16    16    17    1
    17    18    19   ar
    18    20    21   ar
    19    22    17   ar
    20     8     1   ar
    21     8     9   ar
    22    13    11   am
    23    24    25    2
    24     1     2   ar
    25     3     4   ar
    26     5     6   ar
    27     7     9   ar
    28    11    12    2
    29    17    18   ar
    30    19    20   ar
    31    21    22   ar
    32    13    14    1
@<TRIPOS>MOLECULE
Molport-047-879-298 PubChem-165936795
 30 32 0 0 0
SMALL
GASTEIGER

@<TRIPOS>ATOM
      1 C          14.4840   41.4778    8.3585 C.ar    1  UNL1        0.0817
      2 C          13.2193   41.8972    8.0549 C.ar    1  UNL1        0.0509
      3 C          12.9684   42.9028    7.1257 C.ar    1  UNL1        0.0048
      4 C          14.0848   43.4852    6.4959 C.ar    1  UNL1        0.0069
      5 C          15.3960   43.0528    6.8042 C.ar    1  UNL1        0.0361
      6 C          15.6102   42.0313    7.7500 C.ar    1  UNL1        0.0255
      7 C          12.3922   41.1127    8.8265 C.ar    1  UNL1        0.1578
      8 N          14.4154   40.4923    9.2730 N.ar    1  UNL1       -0.2382
      9 N          13.1402   40.2540    9.5616 N.ar    1  UNL1       -0.1534
     10 BR         16.8849   43.8555    5.9261 Br      1  UNL1       -0.0489
     11 C          10.2014   42.2041    9.4923 C.2     1  UNL1        0.4068
     12 O          10.7785   43.1292   10.1270 O.2     1  UNL1       -0.2260
     13 N          10.9623   41.1806    8.8444 N.am    1  UNL1       -0.2336
     14 H          10.4662   40.4706    8.3764 H       1  UNL1        0.1597
     15 O           8.8073   42.1586    9.4191 O.3     1  UNL1       -0.4294
     16 C           7.9715   42.4074   10.5434 C.3     1  UNL1        0.2367
     17 C           6.6204   41.8138   10.3304 C.ar    1  UNL1        0.0213
     18 C           6.0749   41.7538    9.0430 C.ar    1  UNL1       -0.0007
     19 C           4.8051   41.2037    8.8457 C.ar    1  UNL1       -0.0002
     20 C           4.0781   40.7159    9.9360 C.ar    1  UNL1       -0.0000
     21 C           4.6206   40.7786   11.2234 C.ar    1  UNL1       -0.0002
     22 C           5.8906   41.3279   11.4206 C.ar    1  UNL1       -0.0007
     23 C          15.5288   39.7369    9.8275 C.3     1  UNL1        0.2362
     24 C          15.4570   38.3211    9.3733 C.2     1  UNL1        0.3419
     25 O          16.5154   37.6433    9.2849 O.2     1  UNL1       -0.2479
     26 O          14.2061   37.7544    9.0946 O.3     1  UNL1       -0.4544
     27 C          12.0581   36.8216    9.7284 C.3     1  UNL1        0.0437
     28 C          13.5669   36.7604    9.8981 C.3     1  UNL1        0.1363
     29 C          13.9299   36.9368   11.3625 C.3     1  UNL1        0.0437
     30 C          14.0431   35.3961    9.4470 C.3     1  UNL1        0.0437
@<TRIPOS>BOND
     1    27    28    1
     2    28    29    1
     3    28    30    1
     4    28    26    1
     5    24    26    1
     6    23    24    1
     7    23     8    1
     8     2     3   ar
     9     2     7   ar
    10     4     5   ar
    11     5    10    1
    12     6     1   ar
    13     7    13    1
    14    11    15    1
    15    16    15    1
    16    16    17    1
    17    18    19   ar
    18    20    21   ar
    19    22    17   ar
    20     8     1   ar
    21     8     9   ar
    22    13    11   am
    23    24    25    2
    24     1     2   ar
    25     3     4   ar
    26     5     6   ar
    27     7     9   ar
    28    11    12    2
    29    17    18   ar
    30    19    20   ar
    31    21    22   ar
    32    13    14    1
@<TRIPOS>MOLECULE
Molport-047-879-298 PubChem-165936795
 30 32 0 0 0
SMALL
GASTEIGER

@<TRIPOS>ATOM
      1 C          13.7918   40.7712    9.0441 C.ar    1  UNL1        0.0817
      2 C          12.7208   40.6565    9.8851 C.ar    1  UNL1        0.0509
      3 C          12.7843   39.9524   11.0842 C.ar    1  UNL1        0.0048
      4 C          14.0149   39.3502   11.4084 C.ar    1  UNL1        0.0069
      5 C          15.1277   39.4683   10.5429 C.ar    1  UNL1        0.0361
      6 C          15.0251   40.1900    9.3377 C.ar    1  UNL1        0.0255
      7 C          11.7142   41.3699    9.2745 C.ar    1  UNL1        0.1578
      8 N          13.4395   41.5140    7.9783 N.ar    1  UNL1       -0.2382
      9 N          12.1727   41.8933    8.1113 N.ar    1  UNL1       -0.1534
     10 BR         16.7821   38.6491   11.0164 Br      1  UNL1       -0.0489
     11 C           9.8880   42.7598   10.3549 C.2     1  UNL1        0.4068
     12 O          10.6273   43.7776   10.4506 O.2     1  UNL1       -0.2260
     13 N          10.3901   41.5453    9.7898 N.am    1  UNL1       -0.2336
     14 H           9.7803   40.7733    9.7526 H       1  UNL1        0.1597
     15 O           8.5673   42.7989   10.8081 O.3     1  UNL1       -0.4294
     16 C           7.5398   41.9898   10.2479 C.3     1  UNL1        0.2367
     17 C           7.2359   42.4237    8.8540 C.ar    1  UNL1        0.0213
     18 C           6.7909   43.7272    8.6058 C.ar    1  UNL1       -0.0007
     19 C           6.4994   44.1304    7.2995 C.ar    1  UNL1       -0.0002
     20 C           6.6495   43.2297    6.2406 C.ar    1  UNL1       -0.0000
     21 C           7.0905   41.9259    6.4878 C.ar    1  UNL1       -0.0002
     22 C           7.3828   41.5229    7.7939 C.ar    1  UNL1       -0.0007
     23 C          14.2968   41.9180    6.8739 C.3     1  UNL1        0.2362
     24 C          14.6143   43.3683    6.9830 C.2     1  UNL1        0.3419
     25 O          13.8827   44.2096    6.3960 O.2     1  UNL1       -0.2479
     26 O          15.6970   43.7741    7.7746 O.3     1  UNL1       -0.4544
     27 C          17.9730   44.4945    8.2068 C.3     1  UNL1        0.0437
     28 C          17.0694   43.5241    7.4644 C.3     1  UNL1        0.1363
     29 C          17.3118   43.6331    5.9689 C.3     1  UNL1        0.0437
     30 C          17.4150   42.1176    7.9049 C.3     1  UNL1        0.0437
@<TRIPOS>BOND
     1    27    28    1
     2    28    29    1
     3    28    30    1
     4    28    26    1
     5    24    26    1
     6    23    24    1
     7    23     8    1
     8     2     3   ar
     9     2     7   ar
    10     4     5   ar
    11     5    10    1
    12     6     1   ar
    13     7    13    1
    14    11    15    1
    15    16    15    1
    16    16    17    1
    17    18    19   ar
    18    20    21   ar
    19    22    17   ar
    20     8     1   ar
    21     8     9   ar
    22    13    11   am
    23    24    25    2
    24     1     2   ar
    25     3     4   ar
    26     5     6   ar
    27     7     9   ar
    28    11    12    2
    29    17    18   ar
    30    19    20   ar
    31    21    22   ar
    32    13    14    1
@<TRIPOS>MOLECULE
Molport-047-879-298 PubChem-165936795
 30 32 0 0 0
SMALL
GASTEIGER

@<TRIPOS>ATOM
      1 C          11.2108   40.9080   10.0792 C.ar    1  UNL1        0.0817
      2 C          11.3897   42.1363    9.5075 C.ar    1  UNL1        0.0509
      3 C          10.5932   43.2323    9.8267 C.ar    1  UNL1        0.0048
      4 C           9.5759   43.0286   10.7784 C.ar    1  UNL1        0.0069
      5 C           9.3881   41.7599   11.3755 C.ar    1  UNL1        0.0361
      6 C          10.2151   40.6742   11.0274 C.ar    1  UNL1        0.0255
      7 C          12.4618   41.9779    8.6586 C.ar    1  UNL1        0.1578
      8 N          12.1298   40.0546    9.5902 N.ar    1  UNL1       -0.2382
      9 N          12.9066   40.6994    8.7259 N.ar    1  UNL1       -0.1534
     10 BR          8.0079   41.5206   12.6678 Br      1  UNL1       -0.0489
     11 C          13.0876   42.9706    6.4098 C.2     1  UNL1        0.4068
     12 O          12.6374   41.9794    5.7723 O.2     1  UNL1       -0.2260
     13 N          13.0306   43.0045    7.8388 N.am    1  UNL1       -0.2336
     14 H          13.4105   43.7918    8.2918 H       1  UNL1        0.1597
     15 O          13.6584   44.0493    5.7304 O.3     1  UNL1       -0.4294
     16 C          14.9739   44.0062    5.1900 C.3     1  UNL1        0.2367
     17 C          15.9667   43.6953    6.2582 C.ar    1  UNL1        0.0213
     18 C          15.7496   42.6197    7.1268 C.ar    1  UNL1       -0.0007
     19 C          16.6775   42.3338    8.1325 C.ar    1  UNL1       -0.0002
     20 C          17.8218   43.1252    8.2724 C.ar    1  UNL1       -0.0000
     21 C          18.0380   44.2024    7.4073 C.ar    1  UNL1       -0.0002
     22 C          17.1106   44.4878    6.4014 C.ar    1  UNL1       -0.0007
     23 C          12.3201   38.6634    9.9727 C.3     1  UNL1        0.2362
     24 C          13.5952   38.1504    9.4007 C.2     1  UNL1        0.3419
     25 O          13.5904   37.0812    8.7341 O.2     1  UNL1       -0.2479
     26 O          14.7714   38.8912    9.5771 O.3     1  UNL1       -0.4544
     27 C          16.8828   39.6383   10.5097 C.3     1  UNL1        0.0437
     28 C          15.7980   38.5743   10.5194 C.3     1  UNL1        0.1363
     29 C          16.4047   37.2148   10.2175 C.3     1  UNL1        0.0437
     30 C          15.1855   38.5294   11.9031 C.3     1  UNL1        0.0437
@<TRIPOS>BOND
     1    27    28    1
     2    28    29    1
     3    28    30    1
     4    28    26    1
     5    24    26    1
     6    23    24    1
     7    23     8    1
     8     2     3   ar
     9     2     7   ar
    10     4     5   ar
    11     5    10    1
    12     6     1   ar
    13     7    13    1
    14    11    15    1
    15    16    15    1
    16    16    17    1
    17    18    19   ar
    18    20    21   ar
    19    22    17   ar
    20     8     1   ar
    21     8     9   ar
    22    13    11   am
    23    24    25    2
    24     1     2   ar
    25     3     4   ar
    26     5     6   ar
    27     7     9   ar
    28    11    12    2
    29    17    18   ar
    30    19    20   ar
    31    21    22   ar
    32    13    14    1
@<TRIPOS>MOLECULE
Molport-047-879-298 PubChem-165936795
 30 32 0 0 0
SMALL
GASTEIGER

@<TRIPOS>ATOM
      1 C          10.3927   41.1195    9.8477 C.ar    1  UNL1        0.0817
      2 C          10.6049   42.2816    9.1606 C.ar    1  UNL1        0.0509
      3 C           9.6420   43.2827    9.0701 C.ar    1  UNL1        0.0048
      4 C           8.4167   43.0531    9.7242 C.ar    1  UNL1        0.0069
      5 C           8.1927   41.8533   10.4394 C.ar    1  UNL1        0.0361
      6 C           9.1920   40.8631   10.5093 C.ar    1  UNL1        0.0255
      7 C          11.8892   42.1760    8.6764 C.ar    1  UNL1        0.1578
      8 N          11.4970   40.3534    9.7727 N.ar    1  UNL1       -0.2382
      9 N          12.4230   40.9924    9.0653 N.ar    1  UNL1       -0.1534
     10 BR          6.5260   41.5783   11.3220 Br      1  UNL1       -0.0489
     11 C          12.9007   43.0233    6.5100 C.2     1  UNL1        0.4068
     12 O          12.6230   41.9616    5.8876 O.2     1  UNL1       -0.2260
     13 N          12.5654   43.1655    7.8934 N.am    1  UNL1       -0.2336
     14 H          12.8183   44.0058    8.3398 H       1  UNL1        0.1597
     15 O          13.5495   44.0758    5.8602 O.3     1  UNL1       -0.4294
     16 C          14.8580   43.9509    5.3155 C.3     1  UNL1        0.2367
     17 C          15.8432   43.6405    6.3908 C.ar    1  UNL1        0.0213
     18 C          16.9699   44.4519    6.5661 C.ar    1  UNL1       -0.0007
     19 C          17.8965   44.1556    7.5699 C.ar    1  UNL1       -0.0002
     20 C          17.6991   43.0458    8.3972 C.ar    1  UNL1       -0.0000
     21 C          16.5755   42.2322    8.2207 C.ar    1  UNL1       -0.0002
     22 C          15.6486   42.5289    7.2175 C.ar    1  UNL1       -0.0007
     23 C          11.7079   39.0613   10.4081 C.3     1  UNL1        0.2362
     24 C          13.1543   38.8730   10.7057 C.2     1  UNL1        0.3419
     25 O          13.6437   39.3783   11.7510 O.2     1  UNL1       -0.2479
     26 O          13.9362   38.0982    9.8386 O.3     1  UNL1       -0.4544
     27 C          13.5617   35.7155    9.5772 C.3     1  UNL1        0.0437
     28 C          14.4548   36.8034   10.1497 C.3     1  UNL1        0.1363
     29 C          14.5895   36.6242   11.6521 C.3     1  UNL1        0.0437
     30 C          15.8280   36.6712    9.5261 C.3     1  UNL1        0.0437
@<TRIPOS>BOND
     1    27    28    1
     2    28    29    1
     3    28    30    1
     4    28    26    1
     5    24    26    1
     6    23    24    1
     7    23     8    1
     8     2     3   ar
     9     2     7   ar
    10     4     5   ar
    11     5    10    1
    12     6     1   ar
    13     7    13    1
    14    11    15    1
    15    16    15    1
    16    16    17    1
    17    18    19   ar
    18    20    21   ar
    19    22    17   ar
    20     8     1   ar
    21     8     9   ar
    22    13    11   am
    23    24    25    2
    24     1     2   ar
    25     3     4   ar
    26     5     6   ar
    27     7     9   ar
    28    11    12    2
    29    17    18   ar
    30    19    20   ar
    31    21    22   ar
    32    13    14    1
@<TRIPOS>MOLECULE
Molport-047-879-298 PubChem-165936795
 30 32 0 0 0
SMALL
GASTEIGER

@<TRIPOS>ATOM
      1 C          14.3411   41.9927    7.6359 C.ar    1  UNL1        0.0817
      2 C          13.4839   42.4537    6.6766 C.ar    1  UNL1        0.0509
      3 C          13.8759   43.3639    5.6991 C.ar    1  UNL1        0.0048
      4 C          15.2133   43.8025    5.7326 C.ar    1  UNL1        0.0069
      5 C          16.1058   43.3263    6.7216 C.ar    1  UNL1        0.0361
      6 C          15.6724   42.4045    7.6943 C.ar    1  UNL1        0.0255
      7 C          12.2926   41.8122    6.9299 C.ar    1  UNL1        0.1578
      8 N          13.6903   41.1208    8.4284 N.ar    1  UNL1       -0.2382
      9 N          12.4379   40.9955    8.0017 N.ar    1  UNL1       -0.1534
     10 BR         17.9125   43.9328    6.7326 Br      1  UNL1       -0.0489
     11 C           9.7789   41.6302    6.6420 C.2     1  UNL1        0.4068
     12 O           9.6168   41.1317    7.7896 O.2     1  UNL1       -0.2260
     13 N          11.0872   41.9704    6.1738 N.am    1  UNL1       -0.2336
     14 H          11.1643   42.3404    5.2648 H       1  UNL1        0.1597
     15 O           8.6830   41.8503    5.8045 O.3     1  UNL1       -0.4294
     16 C           7.3957   41.3034    6.0659 C.3     1  UNL1        0.2367
     17 C           6.6293   42.1908    6.9871 C.ar    1  UNL1        0.0213
     18 C           6.0664   41.6691    8.1574 C.ar    1  UNL1       -0.0007
     19 C           5.3419   42.5005    9.0165 C.ar    1  UNL1       -0.0002
     20 C           5.1768   43.8535    8.7045 C.ar    1  UNL1       -0.0000
     21 C           5.7358   44.3750    7.5335 C.ar    1  UNL1       -0.0002
     22 C           6.4608   43.5440    6.6749 C.ar    1  UNL1       -0.0007
     23 C          14.2501   40.3638    9.5381 C.3     1  UNL1        0.2362
     24 C          14.5338   38.9674    9.1071 C.2     1  UNL1        0.3419
     25 O          13.5897   38.2405    8.6972 O.2     1  UNL1       -0.2479
     26 O          15.8551   38.5012    9.1234 O.3     1  UNL1       -0.4544
     27 C          17.5593   37.0413   10.0454 C.3     1  UNL1        0.0437
     28 C          16.5897   38.1818   10.3068 C.3     1  UNL1        0.1363
     29 C          15.6493   37.8111   11.4406 C.3     1  UNL1        0.0437
     30 C          17.3865   39.3997   10.7235 C.3     1  UNL1        0.0437
@<TRIPOS>BOND
     1    27    28    1
     2    28    29    1
     3    28    30    1
     4    28    26    1
     5    24    26    1
     6    23    24    1
     7    23     8    1
     8     2     3   ar
     9     2     7   ar
    10     4     5   ar
    11     5    10    1
    12     6     1   ar
    13     7    13    1
    14    11    15    1
    15    16    15    1
    16    16    17    1
    17    18    19   ar
    18    20    21   ar
    19    22    17   ar
    20     8     1   ar
    21     8     9   ar
    22    13    11   am
    23    24    25    2
    24     1     2   ar
    25     3     4   ar
    26     5     6   ar
    27     7     9   ar
    28    11    12    2
    29    17    18   ar
    30    19    20   ar
    31    21    22   ar
    32    13    14    1
@<TRIPOS>MOLECULE
Molport-047-879-298 PubChem-165936795
 30 32 0 0 0
SMALL
GASTEIGER

@<TRIPOS>ATOM
      1 C          14.4956   41.4779    7.9249 C.ar    1  UNL1        0.0817
      2 C          13.6053   41.9209    6.9876 C.ar    1  UNL1        0.0509
      3 C          13.8887   42.9794    6.1291 C.ar    1  UNL1        0.0048
      4 C          15.1500   43.5907    6.2615 C.ar    1  UNL1        0.0069
      5 C          16.0767   43.1342    7.2281 C.ar    1  UNL1        0.0361
      6 C          15.7540   42.0592    8.0790 C.ar    1  UNL1        0.0255
      7 C          12.5102   41.0981    7.1240 C.ar    1  UNL1        0.1578
      8 N          13.9551   40.4422    8.5935 N.ar    1  UNL1       -0.2382
      9 N          12.7432   40.1947    8.1072 N.ar    1  UNL1       -0.1534
     10 BR         17.7795   43.9776    7.3745 Br      1  UNL1       -0.0489
     11 C          10.0744   41.7261    6.7968 C.2     1  UNL1        0.4068
     12 O           9.9645   42.1780    7.9695 O.2     1  UNL1       -0.2260
     13 N          11.3129   41.1726    6.3426 N.am    1  UNL1       -0.2336
     14 H          11.3442   40.8169    5.4252 H       1  UNL1        0.1597
     15 O           8.9844   41.7502    5.9237 O.3     1  UNL1       -0.4294
     16 C           7.7469   41.1154    6.2239 C.3     1  UNL1        0.2367
     17 C           6.8665   42.0316    7.0041 C.ar    1  UNL1        0.0213
     18 C           6.2283   41.5742    8.1626 C.ar    1  UNL1       -0.0007
     19 C           5.3973   42.4320    8.8890 C.ar    1  UNL1       -0.0002
     20 C           5.2013   43.7470    8.4560 C.ar    1  UNL1       -0.0000
     21 C           5.8356   44.2041    7.2966 C.ar    1  UNL1       -0.0002
     22 C           6.6671   43.3466    6.5707 C.ar    1  UNL1       -0.0007
     23 C          14.5891   39.6504    9.6369 C.3     1  UNL1        0.2362
     24 C          14.7759   38.2500    9.1676 C.2     1  UNL1        0.3419
     25 O          15.9399   37.8161    8.9572 O.2     1  UNL1       -0.2479
     26 O          13.6539   37.4253    9.0110 O.3     1  UNL1       -0.4544
     27 C          13.6954   36.9567   11.3910 C.3     1  UNL1        0.0437
     28 C          13.1030   36.5986   10.0382 C.3     1  UNL1        0.1363
     29 C          13.3503   35.1303    9.7380 C.3     1  UNL1        0.0437
     30 C          11.6082   36.8313   10.0949 C.3     1  UNL1        0.0437
@<TRIPOS>BOND
     1    27    28    1
     2    28    29    1
     3    28    30    1
     4    28    26    1
     5    24    26    1
     6    23    24    1
     7    23     8    1
     8     2     3   ar
     9     2     7   ar
    10     4     5   ar
    11     5    10    1
    12     6     1   ar
    13     7    13    1
    14    11    15    1
    15    16    15    1
    16    16    17    1
    17    18    19   ar
    18    20    21   ar
    19    22    17   ar
    20     8     1   ar
    21     8     9   ar
    22    13    11   am
    23    24    25    2
    24     1     2   ar
    25     3     4   ar
    26     5     6   ar
    27     7     9   ar
    28    11    12    2
    29    17    18   ar
    30    19    20   ar
    31    21    22   ar
    32    13    14    1
@<TRIPOS>MOLECULE
Molport-047-879-298 PubChem-165936795
 30 32 0 0 0
SMALL
GASTEIGER

@<TRIPOS>ATOM
      1 C          14.7546   41.5426    8.4654 C.ar    1  UNL1        0.0817
      2 C          13.5936   42.1046    8.0140 C.ar    1  UNL1        0.0509
      3 C          13.5765   43.1337    7.0768 C.ar    1  UNL1        0.0048
      4 C          14.8216   43.5853    6.5996 C.ar    1  UNL1        0.0069
      5 C          16.0264   43.0052    7.0612 C.ar    1  UNL1        0.0361
      6 C          16.0035   41.9645    8.0101 C.ar    1  UNL1        0.0255
      7 C          12.5929   41.4187    8.6646 C.ar    1  UNL1        0.1578
      8 N          14.4609   40.5702    9.3486 N.ar    1  UNL1       -0.2382
      9 N          13.1408   40.4790    9.4731 N.ar    1  UNL1       -0.1534
     10 BR         17.6948   43.6334    6.3873 Br      1  UNL1       -0.0489
     11 C          10.4363   42.6304    9.2261 C.2     1  UNL1        0.4068
     12 O          10.9936   43.3598   10.0916 O.2     1  UNL1       -0.2260
     13 N          11.1890   41.6499    8.5060 N.am    1  UNL1       -0.2336
     14 H          10.7060   41.0931    7.8534 H       1  UNL1        0.1597
     15 O           9.0709   42.7618    8.9626 O.3     1  UNL1       -0.4294
     16 C           8.1110   41.8034    9.3919 C.3     1  UNL1        0.2367
     17 C           7.7029   40.9287    8.2554 C.ar    1  UNL1        0.0213
     18 C           8.5807   39.9526    7.7704 C.ar    1  UNL1       -0.0007
     19 C           8.1996   39.1381    6.7002 C.ar    1  UNL1       -0.0002
     20 C           6.9416   39.3011    6.1118 C.ar    1  UNL1       -0.0000
     21 C           6.0651   40.2786    6.5932 C.ar    1  UNL1       -0.0002
     22 C           6.4458   41.0924    7.6639 C.ar    1  UNL1       -0.0007
     23 C          15.4033   39.6915   10.0250 C.3     1  UNL1        0.2362
     24 C          15.3877   38.3456    9.3889 C.2     1  UNL1        0.3419
     25 O          16.4770   37.7582    9.1528 O.2     1  UNL1       -0.2479
     26 O          14.1578   37.7372    9.1048 O.3     1  UNL1       -0.4544
     27 C          13.9030   37.0476   11.4168 C.3     1  UNL1        0.0437
     28 C          13.4818   36.8261    9.9737 C.3     1  UNL1        0.1363
     29 C          13.7604   35.3888    9.5688 C.3     1  UNL1        0.0437
     30 C          11.9920   37.0738    9.8678 C.3     1  UNL1        0.0437
@<TRIPOS>BOND
     1    27    28    1
     2    28    29    1
     3    28    30    1
     4    28    26    1
     5    24    26    1
     6    23    24    1
     7    23     8    1
     8     2     3   ar
     9     2     7   ar
    10     4     5   ar
    11     5    10    1
    12     6     1   ar
    13     7    13    1
    14    11    15    1
    15    16    15    1
    16    16    17    1
    17    18    19   ar
    18    20    21   ar
    19    22    17   ar
    20     8     1   ar
    21     8     9   ar
    22    13    11   am
    23    24    25    2
    24     1     2   ar
    25     3     4   ar
    26     5     6   ar
    27     7     9   ar
    28    11    12    2
    29    17    18   ar
    30    19    20   ar
    31    21    22   ar
    32    13    14    1
@<TRIPOS>MOLECULE
Molport-047-879-298 PubChem-165936795
 30 32 0 0 0
SMALL
GASTEIGER

@<TRIPOS>ATOM
      1 C          11.2650   41.4519    9.9657 C.ar    1  UNL1        0.0817
      2 C          11.4077   42.6574    9.3380 C.ar    1  UNL1        0.0509
      3 C          10.5656   43.7363    9.5917 C.ar    1  UNL1        0.0048
      4 C           9.5406   43.5398   10.5366 C.ar    1  UNL1        0.0069
      5 C           9.3901   42.2949   11.1915 C.ar    1  UNL1        0.0361
      6 C          10.2628   41.2260   10.9089 C.ar    1  UNL1        0.0255
      7 C          12.4992   42.4996    8.5142 C.ar    1  UNL1        0.1578
      8 N          12.2234   40.6117    9.5326 N.ar    1  UNL1       -0.2382
      9 N          12.9902   41.2436    8.6500 N.ar    1  UNL1       -0.1534
     10 BR          7.9979   42.0652   12.4727 Br      1  UNL1       -0.0489
     11 C          13.3923   43.3070    6.2815 C.2     1  UNL1        0.4068
     12 O          13.2512   42.1759    5.7408 O.2     1  UNL1       -0.2260
     13 N          13.0431   43.5067    7.6543 N.am    1  UNL1       -0.2336
     14 H          13.1875   44.4027    8.0359 H       1  UNL1        0.1597
     15 O          13.9012   44.3827    5.5502 O.3     1  UNL1       -0.4294
     16 C          14.9066   45.2504    6.0609 C.3     1  UNL1        0.2367
     17 C          16.1148   44.4720    6.4578 C.ar    1  UNL1        0.0213
     18 C          16.3965   44.2547    7.8113 C.ar    1  UNL1       -0.0007
     19 C          17.5335   43.5311    8.1823 C.ar    1  UNL1       -0.0002
     20 C          18.3916   43.0267    7.2002 C.ar    1  UNL1       -0.0000
     21 C          18.1131   43.2462    5.8475 C.ar    1  UNL1       -0.0002
     22 C          16.9758   43.9691    5.4766 C.ar    1  UNL1       -0.0007
     23 C          12.4589   39.2487    9.9848 C.3     1  UNL1        0.2362
     24 C          11.5067   38.3208    9.3151 C.2     1  UNL1        0.3419
     25 O          11.8701   37.1439    9.0498 O.2     1  UNL1       -0.2479
     26 O          10.2069   38.7610    9.0320 O.3     1  UNL1       -0.4544
     27 C           8.7468   40.1916    7.7254 C.3     1  UNL1        0.0437
     28 C           9.7006   39.0087    7.7189 C.3     1  UNL1        0.1363
     29 C           8.9952   37.7791    7.1731 C.3     1  UNL1        0.0437
     30 C          10.8637   39.3382    6.8076 C.3     1  UNL1        0.0437
@<TRIPOS>BOND
     1    27    28    1
     2    28    29    1
     3    28    30    1
     4    28    26    1
     5    24    26    1
     6    23    24    1
     7    23     8    1
     8     2     3   ar
     9     2     7   ar
    10     4     5   ar
    11     5    10    1
    12     6     1   ar
    13     7    13    1
    14    11    15    1
    15    16    15    1
    16    16    17    1
    17    18    19   ar
    18    20    21   ar
    19    22    17   ar
    20     8     1   ar
    21     8     9   ar
    22    13    11   am
    23    24    25    2
    24     1     2   ar
    25     3     4   ar
    26     5     6   ar
    27     7     9   ar
    28    11    12    2
    29    17    18   ar
    30    19    20   ar
    31    21    22   ar
    32    13    14    1
