@<TRIPOS>MOLECULE
MolPort-020-293-056 MCULE-2843781751 PubChem-110265523
 30 33 0 0 0
SMALL
GASTEIGER

@<TRIPOS>ATOM
      1 C          11.1565   41.1010    7.1336 C.3     1  UNL1        0.0724
      2 C          10.8644   39.7602    7.8093 C.3     1  UNL1        0.0178
      3 C          11.5224   39.7159    9.1862 C.3     1  UNL1        0.0087
      4 C          12.9447   40.2949    9.1734 C.3     1  UNL1        0.0563
      5 C          13.4782   40.5060    7.7506 C.3     1  UNL1        0.0783
      6 N          12.5957   41.3645    6.9414 N.3     1  UNL1       -0.2685
      7 C          13.8856   39.4543    9.9757 C.ar    1  UNL1        0.0614
      8 C          15.7126   37.9240   10.0013 C.ar    1  UNL1        0.1328
      9 C          15.6360   37.8393   11.3978 C.ar    1  UNL1        0.0344
     10 C          14.6684   38.5747   12.0814 C.ar    1  UNL1        0.0041
     11 C          13.7836   39.3859   11.3714 C.ar    1  UNL1        0.0149
     12 N          14.8388   38.7267    9.3336 N.ar    1  UNL1       -0.2348
     13 N          16.6644   37.1605    9.2478 N.pl3   1  UNL1       -0.2836
     14 H          17.5069   37.6163    9.0204 H       1  UNL1        0.1550
     15 C          16.5288   35.8065    8.7870 C.ar    1  UNL1        0.1291
     16 C          17.5864   35.1991    8.0881 C.ar    1  UNL1        0.0099
     17 C          17.4437   33.8850    7.6396 C.ar    1  UNL1        0.0001
     18 C          16.2631   33.1860    7.8926 C.ar    1  UNL1        0.0204
     19 C          15.2359   33.8152    8.5969 C.ar    1  UNL1        0.1003
     20 C          18.8574   35.9280    7.8104 C.3     1  UNL1        0.0340
     21 N          15.3890   35.0967    9.0241 N.ar    1  UNL1       -0.2294
     22 C          12.8396   42.7437    7.3389 C.3     1  UNL1        0.1019
     23 C          15.3377   43.0956    6.8419 C.ar    1  UNL1        0.0548
     24 C          14.0013   43.3002    6.5874 C.ar    1  UNL1        0.0280
     25 C          13.9465   44.1161    5.4708 C.ar    1  UNL1        0.1183
     26 C          15.9211   42.2899    7.9552 C.3     1  UNL1        0.0515
     27 N          16.0434   43.7729    5.9224 N.ar    1  UNL1       -0.2552
     28 N          15.2153   44.3922    5.0946 N.ar    1  UNL1       -0.1683
     29 C          18.0770   44.2056    7.1963 C.3     1  UNL1        0.0284
     30 C          17.4951   43.8595    5.8403 C.3     1  UNL1        0.1271
@<TRIPOS>BOND
     1    29    30    1
     2    30    27    1
     3    24    25   ar
     4    22    24    1
     5    22     6    1
     6     1     6    1
     7     1     2    1
     8     2     3    1
     9     3     4    1
    10     4     5    1
    11     4     7    1
    12     5     6    1
    13     8    12   ar
    14     8    13    1
    15     9    10   ar
    16    11     7   ar
    17    15    21   ar
    18    16    17   ar
    19    18    19   ar
    20    20    16    1
    21    26    23    1
    22    27    23   ar
    23    27    28   ar
    24    13    15    1
    25    23    24   ar
    26    25    28   ar
    27     7    12   ar
    28     8     9   ar
    29    10    11   ar
    30    15    16   ar
    31    17    18   ar
    32    19    21   ar
    33    13    14    1
@<TRIPOS>MOLECULE
MolPort-020-293-056 MCULE-2843781751 PubChem-110265523
 30 33 0 0 0
SMALL
GASTEIGER

@<TRIPOS>ATOM
      1 C          10.3795   40.3626    6.9201 C.3     1  UNL1        0.0724
      2 C           9.9676   38.9489    7.3345 C.3     1  UNL1        0.0178
      3 C          10.4743   38.6502    8.7434 C.3     1  UNL1        0.0087
      4 C          11.9105   39.1461    8.9656 C.3     1  UNL1        0.0563
      5 C          12.5990   39.5523    7.6562 C.3     1  UNL1        0.0783
      6 N          11.8397   40.5752    6.9162 N.3     1  UNL1       -0.2685
      7 C          12.7293   38.1387    9.7076 C.ar    1  UNL1        0.0614
      8 C          13.7592   35.9895    9.7313 C.ar    1  UNL1        0.1328
      9 C          14.2071   36.2067   11.0411 C.ar    1  UNL1        0.0344
     10 C          13.9064   37.4077   11.6825 C.ar    1  UNL1        0.0041
     11 C          13.1610   38.3814   11.0181 C.ar    1  UNL1        0.0149
     12 N          13.0367   36.9586    9.1048 N.ar    1  UNL1       -0.2348
     13 N          14.0095   34.7580    9.0403 N.pl3   1  UNL1       -0.2836
     14 H          13.2172   34.2669    8.7236 H       1  UNL1        0.1550
     15 C          15.2845   34.1592    8.7574 C.ar    1  UNL1        0.1291
     16 C          15.3508   32.8070    8.3794 C.ar    1  UNL1        0.0099
     17 C          16.5943   32.2324    8.1116 C.ar    1  UNL1        0.0001
     18 C          17.7542   33.0009    8.2133 C.ar    1  UNL1        0.0204
     19 C          17.6528   34.3427    8.5823 C.ar    1  UNL1        0.1003
     20 C          14.1225   31.9695    8.2619 C.3     1  UNL1        0.0340
     21 N          16.4345   34.8868    8.8432 N.ar    1  UNL1       -0.2294
     22 C          12.0916   41.8582    7.5567 C.3     1  UNL1        0.1019
     23 C          14.6450   42.1603    7.5668 C.ar    1  UNL1        0.0548
     24 C          13.3856   42.4275    7.0820 C.ar    1  UNL1        0.0280
     25 C          13.5601   43.3224    6.0408 C.ar    1  UNL1        0.1183
     26 C          14.9903   41.2578    8.7049 C.3     1  UNL1        0.0515
     27 N          15.5258   42.8773    6.8511 N.ar    1  UNL1       -0.2552
     28 N          14.8824   43.5818    5.9322 N.ar    1  UNL1       -0.1683
     29 C          17.3313   44.0357    8.0103 C.3     1  UNL1        0.0284
     30 C          16.9680   42.9205    7.0503 C.3     1  UNL1        0.1271
@<TRIPOS>BOND
     1    29    30    1
     2    30    27    1
     3    24    25   ar
     4    22    24    1
     5    22     6    1
     6     1     6    1
     7     1     2    1
     8     2     3    1
     9     3     4    1
    10     4     5    1
    11     4     7    1
    12     5     6    1
    13     8    12   ar
    14     8    13    1
    15     9    10   ar
    16    11     7   ar
    17    15    21   ar
    18    16    17   ar
    19    18    19   ar
    20    20    16    1
    21    26    23    1
    22    27    23   ar
    23    27    28   ar
    24    13    15    1
    25    23    24   ar
    26    25    28   ar
    27     7    12   ar
    28     8     9   ar
    29    10    11   ar
    30    15    16   ar
    31    17    18   ar
    32    19    21   ar
    33    13    14    1
@<TRIPOS>MOLECULE
MolPort-020-293-056 MCULE-2843781751 PubChem-110265523
 30 33 0 0 0
SMALL
GASTEIGER

@<TRIPOS>ATOM
      1 C           8.3390   41.6612   10.5390 C.3     1  UNL1        0.0724
      2 C           9.1692   41.1699   11.7261 C.3     1  UNL1        0.0178
      3 C          10.6297   41.5764   11.5448 C.3     1  UNL1        0.0087
      4 C          11.1200   41.3685   10.1045 C.3     1  UNL1        0.0563
      5 C          10.1397   40.5375    9.2665 C.3     1  UNL1        0.0783
      6 N           8.7875   41.1214    9.2409 N.3     1  UNL1       -0.2685
      7 C          12.4891   40.7683   10.0732 C.ar    1  UNL1        0.0614
      8 C          14.6831   40.7798    9.1422 C.ar    1  UNL1        0.1328
      9 C          15.0355   39.6771    9.9316 C.ar    1  UNL1        0.0344
     10 C          14.0954   39.1209   10.7984 C.ar    1  UNL1        0.0041
     11 C          12.8127   39.6633   10.8714 C.ar    1  UNL1        0.0149
     12 N          13.4250   41.2918    9.2362 N.ar    1  UNL1       -0.2348
     13 N          15.6001   41.3661    8.2084 N.pl3   1  UNL1       -0.2836
     14 H          16.4982   40.9649    8.1689 H       1  UNL1        0.1550
     15 C          15.3576   42.4720    7.3239 C.ar    1  UNL1        0.1291
     16 C          16.2570   43.5520    7.2958 C.ar    1  UNL1        0.0099
     17 C          16.0105   44.6244    6.4371 C.ar    1  UNL1        0.0001
     18 C          14.8847   44.6138    5.6132 C.ar    1  UNL1        0.0204
     19 C          14.0166   43.5224    5.6591 C.ar    1  UNL1        0.1003
     20 C          17.4676   43.5808    8.1661 C.3     1  UNL1        0.0340
     21 N          14.2687   42.4870    6.5033 N.ar    1  UNL1       -0.2294
     22 C           8.8047   42.2282    8.2952 C.3     1  UNL1        0.1019
     23 C           6.2717   42.6566    8.4042 C.ar    1  UNL1        0.0548
     24 C           7.5833   43.0679    8.4602 C.ar    1  UNL1        0.0280
     25 C           7.5459   44.4259    8.7242 C.ar    1  UNL1        0.1183
     26 C           5.7811   41.2730    8.1324 C.3     1  UNL1        0.0515
     27 N           5.4916   43.7289    8.6132 N.ar    1  UNL1       -0.2552
     28 N           6.2489   44.7987    8.8041 N.ar    1  UNL1       -0.1683
     29 C           3.4898   42.7140    9.5665 C.3     1  UNL1        0.0284
     30 C           4.0352   43.7513    8.6052 C.3     1  UNL1        0.1271
@<TRIPOS>BOND
     1    29    30    1
     2    30    27    1
     3    24    25   ar
     4    22    24    1
     5    22     6    1
     6     1     6    1
     7     1     2    1
     8     2     3    1
     9     3     4    1
    10     4     5    1
    11     4     7    1
    12     5     6    1
    13     8    12   ar
    14     8    13    1
    15     9    10   ar
    16    11     7   ar
    17    15    21   ar
    18    16    17   ar
    19    18    19   ar
    20    20    16    1
    21    26    23    1
    22    27    23   ar
    23    27    28   ar
    24    13    15    1
    25    23    24   ar
    26    25    28   ar
    27     7    12   ar
    28     8     9   ar
    29    10    11   ar
    30    15    16   ar
    31    17    18   ar
    32    19    21   ar
    33    13    14    1
@<TRIPOS>MOLECULE
MolPort-020-293-056 MCULE-2843781751 PubChem-110265523
 30 33 0 0 0
SMALL
GASTEIGER

@<TRIPOS>ATOM
      1 C           7.9166   42.0123   10.0424 C.3     1  UNL1        0.0724
      2 C           8.7188   41.8663   11.3367 C.3     1  UNL1        0.0178
      3 C          10.1931   42.1627   11.0725 C.3     1  UNL1        0.0087
      4 C          10.6914   41.5305    9.7648 C.3     1  UNL1        0.0563
      5 C           9.6942   40.5180    9.1867 C.3     1  UNL1        0.0783
      6 N           8.3612   41.1054    8.9665 N.3     1  UNL1       -0.2685
      7 C          12.0412   40.9105    9.9356 C.ar    1  UNL1        0.0614
      8 C          14.3004   40.7446    9.1949 C.ar    1  UNL1        0.1328
      9 C          14.5590   39.7696   10.1674 C.ar    1  UNL1        0.0344
     10 C          13.5390   39.3672   11.0288 C.ar    1  UNL1        0.0041
     11 C          12.2703   39.9350   10.9148 C.ar    1  UNL1        0.0149
     12 N          13.0539   41.2852    9.1082 N.ar    1  UNL1       -0.2348
     13 N          15.3036   41.1667    8.2610 N.pl3   1  UNL1       -0.2836
     14 H          16.0881   40.5792    8.1685 H       1  UNL1        0.1550
     15 C          15.2943   42.3491    7.4449 C.ar    1  UNL1        0.1291
     16 C          16.3932   43.2252    7.4748 C.ar    1  UNL1        0.0099
     17 C          16.3731   44.3741    6.6825 C.ar    1  UNL1        0.0001
     18 C          15.2730   44.6396    5.8666 C.ar    1  UNL1        0.0204
     19 C          14.2023   43.7450    5.8535 C.ar    1  UNL1        0.1003
     20 C          17.5798   42.9577    8.3376 C.3     1  UNL1        0.0340
     21 N          14.2355   42.6320    6.6336 N.ar    1  UNL1       -0.2294
     22 C           8.4229   41.8875    7.7400 C.3     1  UNL1        0.1019
     23 C           9.6476   40.8316    5.7408 C.ar    1  UNL1        0.0548
     24 C           8.5523   40.9864    6.5587 C.ar    1  UNL1        0.0280
     25 C           7.5907   40.1156    6.0768 C.ar    1  UNL1        0.1183
     26 C          10.9460   41.5619    5.8401 C.3     1  UNL1        0.0515
     27 N           9.3417   39.9173    4.8066 N.ar    1  UNL1       -0.2552
     28 N           8.1053   39.4826    4.9988 N.ar    1  UNL1       -0.1683
     29 C           9.7268   38.1377    3.1848 C.3     1  UNL1        0.0284
     30 C          10.2022   39.4744    3.7181 C.3     1  UNL1        0.1271
@<TRIPOS>BOND
     1    29    30    1
     2    30    27    1
     3    24    25   ar
     4    22    24    1
     5    22     6    1
     6     1     6    1
     7     1     2    1
     8     2     3    1
     9     3     4    1
    10     4     5    1
    11     4     7    1
    12     5     6    1
    13     8    12   ar
    14     8    13    1
    15     9    10   ar
    16    11     7   ar
    17    15    21   ar
    18    16    17   ar
    19    18    19   ar
    20    20    16    1
    21    26    23    1
    22    27    23   ar
    23    27    28   ar
    24    13    15    1
    25    23    24   ar
    26    25    28   ar
    27     7    12   ar
    28     8     9   ar
    29    10    11   ar
    30    15    16   ar
    31    17    18   ar
    32    19    21   ar
    33    13    14    1
@<TRIPOS>MOLECULE
MolPort-020-293-056 MCULE-2843781751 PubChem-110265523
 30 33 0 0 0
SMALL
GASTEIGER

@<TRIPOS>ATOM
      1 C          11.0195   37.3913    9.8303 C.3     1  UNL1        0.0724
      2 C          12.1985   36.4482   10.0758 C.3     1  UNL1        0.0178
      3 C          13.2486   37.1405   10.9413 C.3     1  UNL1        0.0087
      4 C          13.4841   38.5985   10.5206 C.3     1  UNL1        0.0563
      5 C          12.8421   38.9284    9.1668 C.3     1  UNL1        0.0783
      6 N          11.3969   38.6431    9.1462 N.3     1  UNL1       -0.2685
      7 C          14.9400   38.9391   10.5167 C.ar    1  UNL1        0.0614
      8 C          16.6878   40.3429    9.7074 C.ar    1  UNL1        0.1328
      9 C          17.6325   39.6005   10.4283 C.ar    1  UNL1        0.0344
     10 C          17.2150   38.5160   11.1990 C.ar    1  UNL1        0.0041
     11 C          15.8630   38.1769   11.2446 C.ar    1  UNL1        0.0149
     12 N          15.3739   39.9923    9.7730 N.ar    1  UNL1       -0.2348
     13 N          17.0688   41.4437    8.8710 N.pl3   1  UNL1       -0.2836
     14 H          18.0202   41.6960    8.8886 H       1  UNL1        0.1550
     15 C          16.2204   42.2206    8.0102 C.ar    1  UNL1        0.1291
     16 C          16.6735   43.4556    7.5150 C.ar    1  UNL1        0.0099
     17 C          15.8403   44.2058    6.6836 C.ar    1  UNL1        0.0001
     18 C          14.5750   43.7246    6.3464 C.ar    1  UNL1        0.0204
     19 C          14.1591   42.4907    6.8477 C.ar    1  UNL1        0.1003
     20 C          18.0237   43.9859    7.8610 C.3     1  UNL1        0.0340
     21 N          14.9810   41.7734    7.6591 N.ar    1  UNL1       -0.2294
     22 C          10.7240   39.7335    9.8375 C.3     1  UNL1        0.1019
     23 C           9.0368   41.5284    9.1006 C.ar    1  UNL1        0.0548
     24 C          10.0491   40.6298    8.8550 C.ar    1  UNL1        0.0280
     25 C          10.3359   40.7381    7.5055 C.ar    1  UNL1        0.1183
     26 C           8.3661   41.7814   10.4102 C.3     1  UNL1        0.0515
     27 N           8.7290   42.1330    7.9421 N.ar    1  UNL1       -0.2552
     28 N           9.5034   41.6624    6.9760 N.ar    1  UNL1       -0.1683
     29 C           6.9527   42.8669    6.4415 C.3     1  UNL1        0.0284
     30 C           7.6884   43.1319    7.7399 C.3     1  UNL1        0.1271
@<TRIPOS>BOND
     1    29    30    1
     2    30    27    1
     3    24    25   ar
     4    22    24    1
     5    22     6    1
     6     1     6    1
     7     1     2    1
     8     2     3    1
     9     3     4    1
    10     4     5    1
    11     4     7    1
    12     5     6    1
    13     8    12   ar
    14     8    13    1
    15     9    10   ar
    16    11     7   ar
    17    15    21   ar
    18    16    17   ar
    19    18    19   ar
    20    20    16    1
    21    26    23    1
    22    27    23   ar
    23    27    28   ar
    24    13    15    1
    25    23    24   ar
    26    25    28   ar
    27     7    12   ar
    28     8     9   ar
    29    10    11   ar
    30    15    16   ar
    31    17    18   ar
    32    19    21   ar
    33    13    14    1
@<TRIPOS>MOLECULE
MolPort-020-293-056 MCULE-2843781751 PubChem-110265523
 30 33 0 0 0
SMALL
GASTEIGER

@<TRIPOS>ATOM
      1 C           6.9185   41.7915    7.4633 C.3     1  UNL1        0.0724
      2 C           7.7068   40.5314    7.1018 C.3     1  UNL1        0.0178
      3 C           8.6124   40.1316    8.2642 C.3     1  UNL1        0.0087
      4 C           9.3134   41.3401    8.9016 C.3     1  UNL1        0.0563
      5 C           9.1783   42.6106    8.0522 C.3     1  UNL1        0.0783
      6 N           7.7728   42.9537    7.7745 N.3     1  UNL1       -0.2685
      7 C          10.7496   41.0473    9.1971 C.ar    1  UNL1        0.0614
      8 C          13.0189   41.1114    8.4715 C.ar    1  UNL1        0.1328
      9 C          13.4278   40.4928    9.6604 C.ar    1  UNL1        0.0344
     10 C          12.4777   40.1513   10.6222 C.ar    1  UNL1        0.0041
     11 C          11.1294   40.4247   10.3933 C.ar    1  UNL1        0.0149
     12 N          11.6967   41.3703    8.2756 N.ar    1  UNL1       -0.2348
     13 N          13.9506   41.4494    7.4350 N.pl3   1  UNL1       -0.2836
     14 H          13.7228   41.1439    6.5273 H       1  UNL1        0.1550
     15 C          15.1785   42.1830    7.5701 C.ar    1  UNL1        0.1291
     16 C          15.3287   43.4171    6.9141 C.ar    1  UNL1        0.0099
     17 C          16.5271   44.1203    7.0469 C.ar    1  UNL1        0.0001
     18 C          17.5578   43.6003    7.8302 C.ar    1  UNL1        0.0204
     19 C          17.3731   42.3769    8.4753 C.ar    1  UNL1        0.1003
     20 C          14.2379   43.9915    6.0750 C.3     1  UNL1        0.0340
     21 N          16.2013   41.7025    8.3332 N.ar    1  UNL1       -0.2294
     22 C           7.2294   43.5819    8.9702 C.3     1  UNL1        0.1019
     23 C           5.1340   42.3818    9.8536 C.ar    1  UNL1        0.0548
     24 C           5.7646   43.3209    9.0707 C.ar    1  UNL1        0.0280
     25 C           4.7589   43.9979    8.4032 C.ar    1  UNL1        0.1183
     26 C           5.7873   41.3895   10.7578 C.3     1  UNL1        0.0515
     27 N           3.8119   42.4902    9.6476 N.ar    1  UNL1       -0.2552
     28 N           3.5764   43.4581    8.7745 N.ar    1  UNL1       -0.1683
     29 C           2.4489   42.1669   11.6435 C.3     1  UNL1        0.0284
     30 C           2.7739   41.6652   10.2506 C.3     1  UNL1        0.1271
@<TRIPOS>BOND
     1    29    30    1
     2    30    27    1
     3    24    25   ar
     4    22    24    1
     5    22     6    1
     6     1     6    1
     7     1     2    1
     8     2     3    1
     9     3     4    1
    10     4     5    1
    11     4     7    1
    12     5     6    1
    13     8    12   ar
    14     8    13    1
    15     9    10   ar
    16    11     7   ar
    17    15    21   ar
    18    16    17   ar
    19    18    19   ar
    20    20    16    1
    21    26    23    1
    22    27    23   ar
    23    27    28   ar
    24    13    15    1
    25    23    24   ar
    26    25    28   ar
    27     7    12   ar
    28     8     9   ar
    29    10    11   ar
    30    15    16   ar
    31    17    18   ar
    32    19    21   ar
    33    13    14    1
@<TRIPOS>MOLECULE
MolPort-020-293-056 MCULE-2843781751 PubChem-110265523
 30 33 0 0 0
SMALL
GASTEIGER

@<TRIPOS>ATOM
      1 C           8.4270   41.2730    7.8587 C.3     1  UNL1        0.0724
      2 C           9.2006   39.9909    7.5458 C.3     1  UNL1        0.0178
      3 C          10.0799   39.6093    8.7341 C.3     1  UNL1        0.0087
      4 C          10.7897   40.8237    9.3501 C.3     1  UNL1        0.0563
      5 C          10.6897   42.0721    8.4640 C.3     1  UNL1        0.0783
      6 N           9.2949   42.4297    8.1526 N.3     1  UNL1       -0.2685
      7 C          12.2157   40.5164    9.6783 C.ar    1  UNL1        0.0614
      8 C          14.5197   40.7667    9.1220 C.ar    1  UNL1        0.1328
      9 C          14.8804   39.9511   10.2028 C.ar    1  UNL1        0.0344
     10 C          13.8886   39.4166   11.0244 C.ar    1  UNL1        0.0041
     11 C          12.5471   39.6947   10.7636 C.ar    1  UNL1        0.0149
     12 N          13.2028   41.0252    8.8926 N.ar    1  UNL1       -0.2348
     13 N          15.4976   41.3110    8.2252 N.pl3   1  UNL1       -0.2836
     14 H          16.3645   40.8457    8.1908 H       1  UNL1        0.1550
     15 C          15.3565   42.4578    7.3714 C.ar    1  UNL1        0.1291
     16 C          16.3167   43.4833    7.4176 C.ar    1  UNL1        0.0099
     17 C          16.1687   44.5961    6.5881 C.ar    1  UNL1        0.0001
     18 C          15.0799   44.6789    5.7198 C.ar    1  UNL1        0.0204
     19 C          14.1494   43.6395    5.6922 C.ar    1  UNL1        0.1003
     20 C          17.4893   43.4122    8.3363 C.3     1  UNL1        0.0340
     21 N          14.3058   42.5638    6.5088 N.ar    1  UNL1       -0.2294
     22 C           8.7418   43.0993    9.3211 C.3     1  UNL1        0.1019
     23 C           6.1903   43.1868    9.0154 C.ar    1  UNL1        0.0548
     24 C           7.3379   42.6541    9.5555 C.ar    1  UNL1        0.0280
     25 C           6.9300   41.5979   10.3513 C.ar    1  UNL1        0.1183
     26 C           6.0977   44.3573    8.0933 C.3     1  UNL1        0.0515
     27 N           5.1467   42.4834    9.4828 N.ar    1  UNL1       -0.2552
     28 N           5.5814   41.5269   10.2894 N.ar    1  UNL1       -0.1683
     29 C           2.9184   41.4934    9.4986 C.3     1  UNL1        0.0284
     30 C           3.7408   42.7293    9.1924 C.3     1  UNL1        0.1271
@<TRIPOS>BOND
     1    29    30    1
     2    30    27    1
     3    24    25   ar
     4    22    24    1
     5    22     6    1
     6     1     6    1
     7     1     2    1
     8     2     3    1
     9     3     4    1
    10     4     5    1
    11     4     7    1
    12     5     6    1
    13     8    12   ar
    14     8    13    1
    15     9    10   ar
    16    11     7   ar
    17    15    21   ar
    18    16    17   ar
    19    18    19   ar
    20    20    16    1
    21    26    23    1
    22    27    23   ar
    23    27    28   ar
    24    13    15    1
    25    23    24   ar
    26    25    28   ar
    27     7    12   ar
    28     8     9   ar
    29    10    11   ar
    30    15    16   ar
    31    17    18   ar
    32    19    21   ar
    33    13    14    1
@<TRIPOS>MOLECULE
MolPort-020-293-056 MCULE-2843781751 PubChem-110265523
 30 33 0 0 0
SMALL
GASTEIGER

@<TRIPOS>ATOM
      1 C           7.1786   40.8131    6.2524 C.3     1  UNL1        0.0724
      2 C           8.0118   39.5465    6.4559 C.3     1  UNL1        0.0178
      3 C           8.7711   39.6287    7.7779 C.3     1  UNL1        0.0087
      4 C           9.3827   41.0171    8.0155 C.3     1  UNL1        0.0563
      5 C           9.3454   41.8963    6.7588 C.3     1  UNL1        0.0783
      6 N           7.9824   42.0502    6.2212 N.3     1  UNL1       -0.2685
      7 C          10.7737   40.9179    8.5549 C.ar    1  UNL1        0.0614
      8 C          13.1143   41.1530    8.1722 C.ar    1  UNL1        0.1328
      9 C          13.3824   40.7152    9.4759 C.ar    1  UNL1        0.0344
     10 C          12.3259   40.3769   10.3207 C.ar    1  UNL1        0.0041
     11 C          11.0124   40.4737    9.8620 C.ar    1  UNL1        0.0149
     12 N          11.8225   41.2419    7.7515 N.ar    1  UNL1       -0.2348
     13 N          14.1650   41.4778    7.2518 N.pl3   1  UNL1       -0.2836
     14 H          14.0942   41.0836    6.3524 H       1  UNL1        0.1550
     15 C          15.3092   42.3127    7.4924 C.ar    1  UNL1        0.1291
     16 C          15.4036   43.5646    6.8601 C.ar    1  UNL1        0.0099
     17 C          16.5213   44.3667    7.0957 C.ar    1  UNL1        0.0001
     18 C          17.5268   43.9264    7.9568 C.ar    1  UNL1        0.0204
     19 C          17.3981   42.6824    8.5754 C.ar    1  UNL1        0.1003
     20 C          14.3383   44.0547    5.9388 C.3     1  UNL1        0.0340
     21 N          16.3049   41.9113    8.3330 N.ar    1  UNL1       -0.2294
     22 C           7.2939   43.0339    7.0446 C.3     1  UNL1        0.1019
     23 C           7.0030   42.0222    9.3905 C.ar    1  UNL1        0.0548
     24 C           7.6386   42.8366    8.4821 C.ar    1  UNL1        0.0280
     25 C           8.6860   43.4272    9.1673 C.ar    1  UNL1        0.1183
     26 C           5.7995   41.1749    9.1403 C.3     1  UNL1        0.0515
     27 N           7.6398   42.1366   10.5668 N.ar    1  UNL1       -0.2552
     28 N           8.6523   42.9817   10.4432 N.ar    1  UNL1       -0.1683
     29 C           8.5253   41.1164   12.5967 C.3     1  UNL1        0.0284
     30 C           7.2786   41.4727   11.8119 C.3     1  UNL1        0.1271
@<TRIPOS>BOND
     1    29    30    1
     2    30    27    1
     3    24    25   ar
     4    22    24    1
     5    22     6    1
     6     1     6    1
     7     1     2    1
     8     2     3    1
     9     3     4    1
    10     4     5    1
    11     4     7    1
    12     5     6    1
    13     8    12   ar
    14     8    13    1
    15     9    10   ar
    16    11     7   ar
    17    15    21   ar
    18    16    17   ar
    19    18    19   ar
    20    20    16    1
    21    26    23    1
    22    27    23   ar
    23    27    28   ar
    24    13    15    1
    25    23    24   ar
    26    25    28   ar
    27     7    12   ar
    28     8     9   ar
    29    10    11   ar
    30    15    16   ar
    31    17    18   ar
    32    19    21   ar
    33    13    14    1
@<TRIPOS>MOLECULE
MolPort-020-293-056 MCULE-2843781751 PubChem-110265523
 30 33 0 0 0
SMALL
GASTEIGER

@<TRIPOS>ATOM
      1 C           8.1477   39.9913    6.0638 C.3     1  UNL1        0.0724
      2 C           8.8969   38.7626    6.5824 C.3     1  UNL1        0.0178
      3 C           9.5152   39.0656    7.9451 C.3     1  UNL1        0.0087
      4 C          10.1602   40.4582    7.9978 C.3     1  UNL1        0.0563
      5 C          10.2955   41.0939    6.6081 C.3     1  UNL1        0.0783
      6 N           9.0053   41.1813    5.9024 N.3     1  UNL1       -0.2685
      7 C          11.4805   40.4242    8.6987 C.ar    1  UNL1        0.0614
      8 C          13.8190   40.8794    8.6329 C.ar    1  UNL1        0.1328
      9 C          13.9690   40.3519    9.9223 C.ar    1  UNL1        0.0344
     10 C          12.8546   39.8567   10.5987 C.ar    1  UNL1        0.0041
     11 C          11.6016   39.8875    9.9872 C.ar    1  UNL1        0.0149
     12 N          12.5836   40.9008    8.0612 N.ar    1  UNL1       -0.2348
     13 N          14.9378   41.3673    7.8800 N.pl3   1  UNL1       -0.2836
     14 H          15.7248   40.7774    7.8367 H       1  UNL1        0.1550
     15 C          15.0413   42.6186    7.1816 C.ar    1  UNL1        0.1291
     16 C          16.1777   43.4259    7.3628 C.ar    1  UNL1        0.0099
     17 C          16.2671   44.6423    6.6843 C.ar    1  UNL1        0.0001
     18 C          15.2382   45.0425    5.8313 C.ar    1  UNL1        0.0204
     19 C          14.1279   44.2137    5.6668 C.ar    1  UNL1        0.1003
     20 C          17.2896   43.0146    8.2675 C.3     1  UNL1        0.0340
     21 N          14.0541   43.0333    6.3374 N.ar    1  UNL1       -0.2294
     22 C           8.2786   42.3158    6.4543 C.3     1  UNL1        0.1019
     23 C           7.5375   42.2206    8.9146 C.ar    1  UNL1        0.0548
     24 C           7.4166   41.8749    7.5885 C.ar    1  UNL1        0.0280
     25 C           6.3118   41.0450    7.5103 C.ar    1  UNL1        0.1183
     26 C           8.5867   43.0955    9.5167 C.3     1  UNL1        0.0515
     27 N           6.5534   41.6102    9.5937 N.ar    1  UNL1       -0.2552
     28 N           5.8123   40.8984    8.7579 N.ar    1  UNL1       -0.1683
     29 C           7.6261   41.4339   11.7764 C.3     1  UNL1        0.0284
     30 C           6.3283   41.6745   11.0313 C.3     1  UNL1        0.1271
@<TRIPOS>BOND
     1    29    30    1
     2    30    27    1
     3    24    25   ar
     4    22    24    1
     5    22     6    1
     6     1     6    1
     7     1     2    1
     8     2     3    1
     9     3     4    1
    10     4     5    1
    11     4     7    1
    12     5     6    1
    13     8    12   ar
    14     8    13    1
    15     9    10   ar
    16    11     7   ar
    17    15    21   ar
    18    16    17   ar
    19    18    19   ar
    20    20    16    1
    21    26    23    1
    22    27    23   ar
    23    27    28   ar
    24    13    15    1
    25    23    24   ar
    26    25    28   ar
    27     7    12   ar
    28     8     9   ar
    29    10    11   ar
    30    15    16   ar
    31    17    18   ar
    32    19    21   ar
    33    13    14    1
@<TRIPOS>MOLECULE
MolPort-020-293-056 MCULE-2843781751 PubChem-110265523
 30 33 0 0 0
SMALL
GASTEIGER

@<TRIPOS>ATOM
      1 C          11.7029   36.5161   10.2472 C.3     1  UNL1        0.0724
      2 C          12.9711   35.7646   10.6556 C.3     1  UNL1        0.0178
      3 C          13.9884   36.7395   11.2436 C.3     1  UNL1        0.0087
      4 C          14.0744   38.0476   10.4439 C.3     1  UNL1        0.0563
      5 C          13.3513   37.9573    9.0938 C.3     1  UNL1        0.0783
      6 N          11.9381   37.5672    9.2385 N.3     1  UNL1       -0.2685
      7 C          15.4923   38.4853   10.2604 C.ar    1  UNL1        0.0614
      8 C          17.0297   40.2731    9.9131 C.ar    1  UNL1        0.1328
      9 C          18.0947   39.3635    9.8718 C.ar    1  UNL1        0.0344
     10 C          17.8441   38.0006   10.0273 C.ar    1  UNL1        0.0041
     11 C          16.5373   37.5530   10.2197 C.ar    1  UNL1        0.0149
     12 N          15.7643   39.8092   10.1063 N.ar    1  UNL1       -0.2348
     13 N          17.2285   41.6804    9.7221 N.pl3   1  UNL1       -0.2836
     14 H          17.5129   42.1920   10.5136 H       1  UNL1        0.1550
     15 C          17.0599   42.4289    8.5073 C.ar    1  UNL1        0.1291
     16 C          15.8400   42.3635    7.8120 C.ar    1  UNL1        0.0099
     17 C          15.6872   43.0899    6.6301 C.ar    1  UNL1        0.0001
     18 C          16.7368   43.8761    6.1540 C.ar    1  UNL1        0.0204
     19 C          17.9316   43.9261    6.8728 C.ar    1  UNL1        0.1003
     20 C          14.7051   41.5316    8.3060 C.3     1  UNL1        0.0340
     21 N          18.0660   43.2101    8.0206 N.ar    1  UNL1       -0.2294
     22 C          11.1979   38.7469    9.6628 C.3     1  UNL1        0.1019
     23 C          10.3087   40.5778    8.0917 C.ar    1  UNL1        0.0548
     24 C          10.3799   39.2772    8.5342 C.ar    1  UNL1        0.0280
     25 C           9.5500   38.5457    7.7026 C.ar    1  UNL1        0.1183
     26 C          11.0174   41.7575    8.6704 C.3     1  UNL1        0.0515
     27 N           9.4620   40.6159    7.0506 N.ar    1  UNL1       -0.2552
     28 N           8.9983   39.3985    6.8105 N.ar    1  UNL1       -0.1683
     29 C           7.5782   42.0384    6.4395 C.3     1  UNL1        0.0284
     30 C           9.0688   41.8011    6.3009 C.3     1  UNL1        0.1271
@<TRIPOS>BOND
     1    29    30    1
     2    30    27    1
     3    24    25   ar
     4    22    24    1
     5    22     6    1
     6     1     6    1
     7     1     2    1
     8     2     3    1
     9     3     4    1
    10     4     5    1
    11     4     7    1
    12     5     6    1
    13     8    12   ar
    14     8    13    1
    15     9    10   ar
    16    11     7   ar
    17    15    21   ar
    18    16    17   ar
    19    18    19   ar
    20    20    16    1
    21    26    23    1
    22    27    23   ar
    23    27    28   ar
    24    13    15    1
    25    23    24   ar
    26    25    28   ar
    27     7    12   ar
    28     8     9   ar
    29    10    11   ar
    30    15    16   ar
    31    17    18   ar
    32    19    21   ar
    33    13    14    1
