@<TRIPOS>MOLECULE
MolPort-046-956-104 MCULE-7546330212 PubChem-110095008
 29 31 0 0 0
SMALL
GASTEIGER

@<TRIPOS>ATOM
      1 C          11.2556   40.9742    6.6324 C.ar    1  UNL1        0.0528
      2 C          11.9736   40.0892    7.4400 C.ar    1  UNL1        0.0294
      3 C          11.3404   38.9590    7.9638 C.ar    1  UNL1        0.0608
      4 C           9.3052   39.5715    6.9028 C.ar    1  UNL1        0.0602
      5 C           9.9067   40.7095    6.3626 C.ar    1  UNL1        0.0294
      6 C           7.8748   39.2840    6.6218 C.3     1  UNL1        0.0521
      7 N          10.0269   38.7265    7.6859 N.ar    1  UNL1       -0.2539
      8 C          12.1139   38.0212    8.8285 C.3     1  UNL1        0.0563
      9 C          11.1853   37.2152    9.7220 C.3     1  UNL1        0.0087
     10 C          12.0138   36.2376   10.5354 C.3     1  UNL1        0.0178
     11 C          13.0343   36.9945   11.3863 C.3     1  UNL1        0.0725
     12 C          13.1366   38.7837    9.6745 C.3     1  UNL1        0.0784
     13 N          13.8767   37.9079   10.5968 N.3     1  UNL1       -0.2647
     14 C          15.0495   37.2603    9.9911 C.3     1  UNL1        0.1584
     15 C          16.3514   37.6089   10.6453 C.2     1  UNL1        0.2389
     16 C          18.6151   38.7039   10.4963 C.3     1  UNL1        0.1107
     17 N          17.3333   38.3442    9.9147 N.am    1  UNL1       -0.3015
     18 O          16.5523   37.2924   11.8483 O.2     1  UNL1       -0.2736
     19 H          17.1358   38.6155    8.9892 H       1  UNL1        0.1495
     20 N          11.9278   42.1273    6.1063 N.pl3   1  UNL1       -0.2825
     21 H          11.4342   42.6515    5.4349 H       1  UNL1        0.1551
     22 C          16.0678   41.4746    8.5873 C.3     1  UNL1        0.0522
     23 C          15.2500   42.2890    7.6513 C.ar    1  UNL1        0.0634
     24 C          15.7610   43.4771    7.1324 C.ar    1  UNL1        0.0296
     25 C          14.9635   44.2124    6.2579 C.ar    1  UNL1        0.0634
     26 C          13.2368   42.6030    6.4471 C.ar    1  UNL1        0.2200
     27 C          15.4698   45.4852    5.6815 C.3     1  UNL1        0.0522
     28 N          13.7230   43.7657    5.9322 N.ar    1  UNL1       -0.2179
     29 N          14.0039   41.8752    7.3016 N.ar    1  UNL1       -0.2179
@<TRIPOS>BOND
     1    22    23    1
     2    23    29   ar
     3    24    25   ar
     4    26    28   ar
     5    26    20    1
     6     2     3   ar
     7     4     7   ar
     8     5     1   ar
     9     6     4    1
    10     8     3    1
    11     8     9    1
    12     9    10    1
    13    10    11    1
    14    11    13    1
    15    12    13    1
    16    12     8    1
    17    14    13    1
    18    14    15    1
    19    15    17   am
    20    16    17    1
    21    27    25    1
    22    20     1    1
    23    23    24   ar
    24    25    28   ar
    25    26    29   ar
    26     1     2   ar
    27     3     7   ar
    28     4     5   ar
    29    15    18    2
    30    20    21    1
    31    17    19    1
@<TRIPOS>MOLECULE
MolPort-046-956-104 MCULE-7546330212 PubChem-110095008
 29 31 0 0 0
SMALL
GASTEIGER

@<TRIPOS>ATOM
      1 C          16.0364   41.9443    8.1746 C.ar    1  UNL1        0.0528
      2 C          14.7426   41.4319    8.2960 C.ar    1  UNL1        0.0294
      3 C          13.6819   42.0656    7.6436 C.ar    1  UNL1        0.0608
      4 C          15.1629   43.6990    6.7595 C.ar    1  UNL1        0.0602
      5 C          16.2455   43.0905    7.3969 C.ar    1  UNL1        0.0294
      6 C          15.3763   44.9154    5.9332 C.3     1  UNL1        0.0521
      7 N          13.9138   43.1798    6.8943 N.ar    1  UNL1       -0.2539
      8 C          12.3027   41.5138    7.7818 C.3     1  UNL1        0.0563
      9 C          11.9812   41.2134    9.2366 C.3     1  UNL1        0.0087
     10 C          10.5514   40.7128    9.3296 C.3     1  UNL1        0.0178
     11 C          10.3803   39.4509    8.4830 C.3     1  UNL1        0.0725
     12 C          12.1360   40.2536    6.9290 C.3     1  UNL1        0.0784
     13 N          10.8116   39.6320    7.0872 N.3     1  UNL1       -0.2647
     14 C           9.7763   40.2058    6.2151 C.3     1  UNL1        0.1584
     15 C           9.3281   39.2969    5.1117 C.2     1  UNL1        0.2389
     16 C           9.9132   37.6073    3.3372 C.3     1  UNL1        0.1107
     17 N          10.2899   38.5009    4.4191 N.am    1  UNL1       -0.3015
     18 O           8.1024   39.2062    4.8339 O.2     1  UNL1       -0.2736
     19 H          11.2368   38.5593    4.6824 H       1  UNL1        0.1495
     20 N          17.1089   41.2758    8.8536 N.pl3   1  UNL1       -0.2825
     21 H          18.0076   41.6593    8.7334 H       1  UNL1        0.1551
     22 C          14.4960   38.5771   11.9537 C.3     1  UNL1        0.0522
     23 C          15.7538   38.7988   11.1942 C.ar    1  UNL1        0.0634
     24 C          16.8039   37.8893   11.3045 C.ar    1  UNL1        0.0296
     25 C          17.9669   38.1322   10.5764 C.ar    1  UNL1        0.0634
     26 C          17.0208   40.1126    9.6874 C.ar    1  UNL1        0.2200
     27 C          19.1108   37.1877   10.6651 C.3     1  UNL1        0.0522
     28 N          18.0549   39.2327    9.7853 N.ar    1  UNL1       -0.2179
     29 N          15.8800   39.8883   10.3921 N.ar    1  UNL1       -0.2179
@<TRIPOS>BOND
     1    22    23    1
     2    23    29   ar
     3    24    25   ar
     4    26    28   ar
     5    26    20    1
     6     2     3   ar
     7     4     7   ar
     8     5     1   ar
     9     6     4    1
    10     8     3    1
    11     8     9    1
    12     9    10    1
    13    10    11    1
    14    11    13    1
    15    12    13    1
    16    12     8    1
    17    14    13    1
    18    14    15    1
    19    15    17   am
    20    16    17    1
    21    27    25    1
    22    20     1    1
    23    23    24   ar
    24    25    28   ar
    25    26    29   ar
    26     1     2   ar
    27     3     7   ar
    28     4     5   ar
    29    15    18    2
    30    20    21    1
    31    17    19    1
@<TRIPOS>MOLECULE
MolPort-046-956-104 MCULE-7546330212 PubChem-110095008
 29 31 0 0 0
SMALL
GASTEIGER

@<TRIPOS>ATOM
      1 C          13.9605   39.7252    9.5922 C.ar    1  UNL1        0.0528
      2 C          12.8436   40.5635    9.6236 C.ar    1  UNL1        0.0294
      3 C          11.5914   40.0381    9.9529 C.ar    1  UNL1        0.0608
      4 C          12.5360   37.8746   10.2170 C.ar    1  UNL1        0.0602
      5 C          13.8015   38.3663    9.8929 C.ar    1  UNL1        0.0294
      6 C          12.3590   36.4343   10.5367 C.3     1  UNL1        0.0521
      7 N          11.4654   38.7122   10.2401 N.ar    1  UNL1       -0.2539
      8 C          10.4033   40.9399    9.9803 C.3     1  UNL1        0.0563
      9 C          10.6996   42.2505    9.2697 C.3     1  UNL1        0.0087
     10 C           9.4450   43.1047    9.2731 C.3     1  UNL1        0.0178
     11 C           8.9981   43.3763   10.7101 C.3     1  UNL1        0.0725
     12 C           9.9578   41.2047   11.4206 C.3     1  UNL1        0.0784
     13 N           8.8304   42.1469   11.5023 N.3     1  UNL1       -0.2647
     14 C           7.5127   41.5140   11.3451 C.3     1  UNL1        0.1584
     15 C           6.8351   41.8184   10.0440 C.2     1  UNL1        0.2389
     16 C           5.2916   43.2959    8.7098 C.3     1  UNL1        0.1107
     17 N           5.9791   42.9567    9.9439 N.am    1  UNL1       -0.3015
     18 O           7.0610   41.0963    9.0363 O.2     1  UNL1       -0.2736
     19 H           5.8510   43.5289   10.7347 H       1  UNL1        0.1495
     20 N          15.2354   40.2882    9.2515 N.pl3   1  UNL1       -0.2825
     21 H          16.0264   39.8291    9.6159 H       1  UNL1        0.1551
     22 C          13.6844   43.3687    5.8127 C.3     1  UNL1        0.0522
     23 C          14.7379   42.9423    6.7700 C.ar    1  UNL1        0.0634
     24 C          15.9294   43.6596    6.8599 C.ar    1  UNL1        0.0296
     25 C          16.8926   43.2281    7.7695 C.ar    1  UNL1        0.0634
     26 C          15.4885   41.4434    8.4408 C.ar    1  UNL1        0.2200
     27 C          18.1773   43.9642    7.8975 C.3     1  UNL1        0.0522
     28 N          16.6573   42.1344    8.5396 N.ar    1  UNL1       -0.2179
     29 N          14.5396   41.8530    7.5575 N.ar    1  UNL1       -0.2179
@<TRIPOS>BOND
     1    22    23    1
     2    23    29   ar
     3    24    25   ar
     4    26    28   ar
     5    26    20    1
     6     2     3   ar
     7     4     7   ar
     8     5     1   ar
     9     6     4    1
    10     8     3    1
    11     8     9    1
    12     9    10    1
    13    10    11    1
    14    11    13    1
    15    12    13    1
    16    12     8    1
    17    14    13    1
    18    14    15    1
    19    15    17   am
    20    16    17    1
    21    27    25    1
    22    20     1    1
    23    23    24   ar
    24    25    28   ar
    25    26    29   ar
    26     1     2   ar
    27     3     7   ar
    28     4     5   ar
    29    15    18    2
    30    20    21    1
    31    17    19    1
@<TRIPOS>MOLECULE
MolPort-046-956-104 MCULE-7546330212 PubChem-110095008
 29 31 0 0 0
SMALL
GASTEIGER

@<TRIPOS>ATOM
      1 C           9.6531   41.2451   10.6358 C.ar    1  UNL1        0.0528
      2 C           8.3115   41.4592   10.3111 C.ar    1  UNL1        0.0294
      3 C           7.3577   41.5488   11.3283 C.ar    1  UNL1        0.0608
      4 C           9.0385   41.2170   12.9737 C.ar    1  UNL1        0.0602
      5 C          10.0173   41.1232   11.9830 C.ar    1  UNL1        0.0294
      6 C           9.4166   41.0883   14.4049 C.3     1  UNL1        0.0521
      7 N           7.7398   41.4256   12.6303 N.ar    1  UNL1       -0.2539
      8 C           5.9265   41.7738   10.9722 C.3     1  UNL1        0.0563
      9 C           5.0147   40.8794   11.7962 C.3     1  UNL1        0.0087
     10 C           3.5721   41.1887   11.4402 C.3     1  UNL1        0.0178
     11 C           3.3355   40.9476    9.9487 C.3     1  UNL1        0.0725
     12 C           5.6966   41.5353    9.4778 C.3     1  UNL1        0.0784
     13 N           4.2839   41.6768    9.0908 N.3     1  UNL1       -0.2647
     14 C           3.8810   43.0612    8.8027 C.3     1  UNL1        0.1584
     15 C           4.9235   43.8705    8.0936 C.2     1  UNL1        0.2389
     16 C           6.7777   43.9842    6.3922 C.3     1  UNL1        0.1107
     17 N           5.7472   43.2500    7.1061 N.am    1  UNL1       -0.3015
     18 O           5.0352   45.1013    8.3393 O.2     1  UNL1       -0.2736
     19 H           5.6128   42.2961    6.9029 H       1  UNL1        0.1495
     20 N          10.6136   41.1570    9.5738 N.pl3   1  UNL1       -0.2825
     21 H          10.2809   41.3497    8.6675 H       1  UNL1        0.1551
     22 C          15.1559   41.6777    7.8954 C.3     1  UNL1        0.0522
     23 C          14.2117   41.0710    8.8693 C.ar    1  UNL1        0.0634
     24 C          14.6855   40.2026    9.8509 C.ar    1  UNL1        0.0296
     25 C          13.7688   39.6542   10.7455 C.ar    1  UNL1        0.0634
     26 C          12.0031   40.8202    9.6823 C.ar    1  UNL1        0.2200
     27 C          14.2316   38.7236   11.8077 C.3     1  UNL1        0.0522
     28 N          12.4516   39.9703   10.6466 N.ar    1  UNL1       -0.2179
     29 N          12.8863   41.3628    8.8026 N.ar    1  UNL1       -0.2179
@<TRIPOS>BOND
     1    22    23    1
     2    23    29   ar
     3    24    25   ar
     4    26    28   ar
     5    26    20    1
     6     2     3   ar
     7     4     7   ar
     8     5     1   ar
     9     6     4    1
    10     8     3    1
    11     8     9    1
    12     9    10    1
    13    10    11    1
    14    11    13    1
    15    12    13    1
    16    12     8    1
    17    14    13    1
    18    14    15    1
    19    15    17   am
    20    16    17    1
    21    27    25    1
    22    20     1    1
    23    23    24   ar
    24    25    28   ar
    25    26    29   ar
    26     1     2   ar
    27     3     7   ar
    28     4     5   ar
    29    15    18    2
    30    20    21    1
    31    17    19    1
@<TRIPOS>MOLECULE
MolPort-046-956-104 MCULE-7546330212 PubChem-110095008
 29 31 0 0 0
SMALL
GASTEIGER

@<TRIPOS>ATOM
      1 C          12.7562   42.2160    6.4440 C.ar    1  UNL1        0.0528
      2 C          12.8905   41.2003    7.3934 C.ar    1  UNL1        0.0294
      3 C          14.0917   41.0601    8.0935 C.ar    1  UNL1        0.0608
      4 C          15.0210   42.9095    6.9278 C.ar    1  UNL1        0.0602
      5 C          13.8352   43.0785    6.2111 C.ar    1  UNL1        0.0294
      6 C          16.1703   43.8198    6.6861 C.3     1  UNL1        0.0521
      7 N          15.1254   41.9126    7.8462 N.ar    1  UNL1       -0.2539
      8 C          14.2278   39.9701    9.1030 C.3     1  UNL1        0.0563
      9 C          13.2698   40.1822   10.2638 C.3     1  UNL1        0.0087
     10 C          13.4046   39.0191   11.2297 C.3     1  UNL1        0.0178
     11 C          14.8415   38.9279   11.7450 C.3     1  UNL1        0.0725
     12 C          15.6686   39.8806    9.6119 C.3     1  UNL1        0.0784
     13 N          15.8376   38.8645   10.6629 N.3     1  UNL1       -0.2647
     14 C          16.0693   37.5072   10.1474 C.3     1  UNL1        0.1584
     15 C          17.5064   37.0839   10.1530 C.2     1  UNL1        0.2389
     16 C          19.6474   36.7019    8.8817 C.3     1  UNL1        0.1107
     17 N          18.2533   37.1074    8.9364 N.am    1  UNL1       -0.3015
     18 O          18.0583   36.7551   11.2370 O.2     1  UNL1       -0.2736
     19 H          17.8105   37.4075    8.1099 H       1  UNL1        0.1495
     20 N          11.5132   42.3399    5.7385 N.pl3   1  UNL1       -0.2825
     21 H          11.3329   43.2137    5.3223 H       1  UNL1        0.1551
     22 C           7.2661   40.4399    7.1785 C.3     1  UNL1        0.0522
     23 C           8.4399   40.4099    6.2677 C.ar    1  UNL1        0.0634
     24 C           8.5353   39.4251    5.2862 C.ar    1  UNL1        0.0296
     25 C           9.6511   39.4306    4.4518 C.ar    1  UNL1        0.0634
     26 C          10.5034   41.3357    5.5705 C.ar    1  UNL1        0.2200
     27 C           9.7924   38.3985    3.3920 C.3     1  UNL1        0.0522
     28 N          10.6101   40.3798    4.6071 N.ar    1  UNL1       -0.2179
     29 N           9.4201   41.3426    6.3919 N.ar    1  UNL1       -0.2179
@<TRIPOS>BOND
     1    22    23    1
     2    23    29   ar
     3    24    25   ar
     4    26    28   ar
     5    26    20    1
     6     2     3   ar
     7     4     7   ar
     8     5     1   ar
     9     6     4    1
    10     8     3    1
    11     8     9    1
    12     9    10    1
    13    10    11    1
    14    11    13    1
    15    12    13    1
    16    12     8    1
    17    14    13    1
    18    14    15    1
    19    15    17   am
    20    16    17    1
    21    27    25    1
    22    20     1    1
    23    23    24   ar
    24    25    28   ar
    25    26    29   ar
    26     1     2   ar
    27     3     7   ar
    28     4     5   ar
    29    15    18    2
    30    20    21    1
    31    17    19    1
@<TRIPOS>MOLECULE
MolPort-046-956-104 MCULE-7546330212 PubChem-110095008
 29 31 0 0 0
SMALL
GASTEIGER

@<TRIPOS>ATOM
      1 C          13.8832   39.7956    9.3682 C.ar    1  UNL1        0.0528
      2 C          12.8289   40.6855    9.5867 C.ar    1  UNL1        0.0294
      3 C          11.5729   40.1956    9.9540 C.ar    1  UNL1        0.0608
      4 C          12.3909   37.9663    9.8893 C.ar    1  UNL1        0.0602
      5 C          13.6584   38.4214    9.5222 C.ar    1  UNL1        0.0294
      6 C          12.1442   36.5104   10.0541 C.3     1  UNL1        0.0521
      7 N          11.3821   38.8539   10.0958 N.ar    1  UNL1       -0.2539
      8 C          10.4516   41.1529   10.1817 C.3     1  UNL1        0.0563
      9 C           9.8911   41.0086   11.5871 C.3     1  UNL1        0.0087
     10 C           8.7972   42.0416   11.7873 C.3     1  UNL1        0.0178
     11 C           7.6867   41.8377   10.7560 C.3     1  UNL1        0.0725
     12 C           9.3452   40.9472    9.1441 C.3     1  UNL1        0.0784
     13 N           8.1842   41.8227    9.3706 N.3     1  UNL1       -0.2647
     14 C           8.3209   43.1594    8.7738 C.3     1  UNL1        0.1584
     15 C           7.1177   43.6169    8.0071 C.2     1  UNL1        0.2389
     16 C           4.7722   44.5357    8.0212 C.3     1  UNL1        0.1107
     17 N           5.9685   44.0863    8.7124 N.am    1  UNL1       -0.3015
     18 O           7.1449   43.6282    6.7474 O.2     1  UNL1       -0.2736
     19 H           5.9873   44.1060    9.6965 H       1  UNL1        0.1495
     20 N          15.1634   40.3228    8.9922 N.pl3   1  UNL1       -0.2825
     21 H          15.9498   39.8042    9.2782 H       1  UNL1        0.1551
     22 C          18.1850   44.0090    7.9911 C.3     1  UNL1        0.0522
     23 C          16.8937   43.3117    7.7583 C.ar    1  UNL1        0.0634
     24 C          15.9813   43.8239    6.8378 C.ar    1  UNL1        0.0296
     25 C          14.7816   43.1412    6.6476 C.ar    1  UNL1        0.0634
     26 C          15.4277   41.5191    8.2472 C.ar    1  UNL1        0.2200
     27 C          13.7807   43.6529    5.6756 C.3     1  UNL1        0.0522
     28 N          14.5268   42.0077    7.3510 N.ar    1  UNL1       -0.2179
     29 N          16.6024   42.1748    8.4429 N.ar    1  UNL1       -0.2179
@<TRIPOS>BOND
     1    22    23    1
     2    23    29   ar
     3    24    25   ar
     4    26    28   ar
     5    26    20    1
     6     2     3   ar
     7     4     7   ar
     8     5     1   ar
     9     6     4    1
    10     8     3    1
    11     8     9    1
    12     9    10    1
    13    10    11    1
    14    11    13    1
    15    12    13    1
    16    12     8    1
    17    14    13    1
    18    14    15    1
    19    15    17   am
    20    16    17    1
    21    27    25    1
    22    20     1    1
    23    23    24   ar
    24    25    28   ar
    25    26    29   ar
    26     1     2   ar
    27     3     7   ar
    28     4     5   ar
    29    15    18    2
    30    20    21    1
    31    17    19    1
@<TRIPOS>MOLECULE
MolPort-046-956-104 MCULE-7546330212 PubChem-110095008
 29 31 0 0 0
SMALL
GASTEIGER

@<TRIPOS>ATOM
      1 C          15.7163   42.0236    8.0019 C.ar    1  UNL1        0.0528
      2 C          14.4593   41.4202    7.9189 C.ar    1  UNL1        0.0294
      3 C          13.4609   42.0027    7.1338 C.ar    1  UNL1        0.0608
      4 C          14.9317   43.7635    6.5180 C.ar    1  UNL1        0.0602
      5 C          15.9519   43.2083    7.2922 C.ar    1  UNL1        0.0294
      6 C          15.1735   45.0202    5.7628 C.3     1  UNL1        0.0521
      7 N          13.7173   43.1559    6.4548 N.ar    1  UNL1       -0.2539
      8 C          12.1201   41.3535    7.0540 C.3     1  UNL1        0.0563
      9 C          11.7742   40.9964    5.6176 C.3     1  UNL1        0.0087
     10 C          10.4324   40.2871    5.5982 C.3     1  UNL1        0.0178
     11 C           9.3508   41.1926    6.1888 C.3     1  UNL1        0.0725
     12 C          11.0424   42.2623    7.6504 C.3     1  UNL1        0.0784
     13 N           9.6903   41.6939    7.5307 N.3     1  UNL1       -0.2647
     14 C           9.3340   40.7703    8.6177 C.3     1  UNL1        0.1584
     15 C           8.0129   41.0595    9.2626 C.2     1  UNL1        0.2389
     16 C           6.6956   41.5599   11.3507 C.3     1  UNL1        0.1107
     17 N           7.9495   41.2821   10.6715 N.am    1  UNL1       -0.3015
     18 O           6.9759   41.1502    8.5526 O.2     1  UNL1       -0.2736
     19 H           8.7803   41.2462   11.1985 H       1  UNL1        0.1495
     20 N          16.7249   41.4063    8.8142 N.pl3   1  UNL1       -0.2825
     21 H          17.6159   41.8246    8.7961 H       1  UNL1        0.1551
     22 C          18.7101   37.3814   10.7063 C.3     1  UNL1        0.0522
     23 C          17.5443   38.2928   10.5706 C.ar    1  UNL1        0.0634
     24 C          16.3575   38.0113   11.2447 C.ar    1  UNL1        0.0296
     25 C          15.2871   38.8901   11.0919 C.ar    1  UNL1        0.0634
     26 C          16.5828   40.2494    9.6493 C.ar    1  UNL1        0.2200
     27 C          14.0034   38.6275   11.7930 C.3     1  UNL1        0.0522
     28 N          15.4171   39.9872   10.3019 N.ar    1  UNL1       -0.2179
     29 N          17.6355   39.4007    9.7891 N.ar    1  UNL1       -0.2179
@<TRIPOS>BOND
     1    22    23    1
     2    23    29   ar
     3    24    25   ar
     4    26    28   ar
     5    26    20    1
     6     2     3   ar
     7     4     7   ar
     8     5     1   ar
     9     6     4    1
    10     8     3    1
    11     8     9    1
    12     9    10    1
    13    10    11    1
    14    11    13    1
    15    12    13    1
    16    12     8    1
    17    14    13    1
    18    14    15    1
    19    15    17   am
    20    16    17    1
    21    27    25    1
    22    20     1    1
    23    23    24   ar
    24    25    28   ar
    25    26    29   ar
    26     1     2   ar
    27     3     7   ar
    28     4     5   ar
    29    15    18    2
    30    20    21    1
    31    17    19    1
@<TRIPOS>MOLECULE
MolPort-046-956-104 MCULE-7546330212 PubChem-110095008
 29 31 0 0 0
SMALL
GASTEIGER

@<TRIPOS>ATOM
      1 C          12.7693   42.1588    6.4688 C.ar    1  UNL1        0.0528
      2 C          12.8417   41.1588    7.4413 C.ar    1  UNL1        0.0294
      3 C          14.0211   40.9843    8.1700 C.ar    1  UNL1        0.0608
      4 C          15.0504   42.7688    6.9873 C.ar    1  UNL1        0.0602
      5 C          13.8878   42.9712    6.2418 C.ar    1  UNL1        0.0294
      6 C          16.2412   43.6259    6.7522 C.3     1  UNL1        0.0521
      7 N          15.0942   41.7882    7.9278 N.ar    1  UNL1       -0.2539
      8 C          14.0909   39.9112    9.2041 C.3     1  UNL1        0.0563
      9 C          13.2315   40.2606   10.4081 C.3     1  UNL1        0.0087
     10 C          13.2892   39.1141   11.4010 C.3     1  UNL1        0.0178
     11 C          14.7338   38.8715   11.8402 C.3     1  UNL1        0.0725
     12 C          15.5392   39.6697    9.6365 C.3     1  UNL1        0.0784
     13 N          15.6523   38.6674   10.7081 N.3     1  UNL1       -0.2647
     14 C          15.6990   37.2801   10.2234 C.3     1  UNL1        0.1584
     15 C          14.3594   36.7015    9.8838 C.2     1  UNL1        0.2389
     16 C          12.3133   35.4256   10.6131 C.3     1  UNL1        0.1107
     17 N          13.6140   36.0120   10.8876 N.am    1  UNL1       -0.3015
     18 O          13.8798   36.8671    8.7304 O.2     1  UNL1       -0.2736
     19 H          13.9926   35.9315   11.7928 H       1  UNL1        0.1495
     20 N          11.5474   42.3185    5.7341 N.pl3   1  UNL1       -0.2825
     21 H          11.4235   43.1810    5.2758 H       1  UNL1        0.1551
     22 C           9.7076   38.4751    3.3754 C.3     1  UNL1        0.0522
     23 C           9.5892   39.4972    4.4475 C.ar    1  UNL1        0.0634
     24 C           8.4702   39.5094    5.2781 C.ar    1  UNL1        0.0296
     25 C           8.3961   40.4836    6.2715 C.ar    1  UNL1        0.0634
     26 C          10.4862   41.3649    5.5914 C.ar    1  UNL1        0.2200
     27 C           7.2204   40.5325    7.1790 C.3     1  UNL1        0.0522
     28 N           9.3989   41.3890    6.4104 N.ar    1  UNL1       -0.2179
     29 N          10.5719   40.4200    4.6178 N.ar    1  UNL1       -0.2179
@<TRIPOS>BOND
     1    22    23    1
     2    23    29   ar
     3    24    25   ar
     4    26    28   ar
     5    26    20    1
     6     2     3   ar
     7     4     7   ar
     8     5     1   ar
     9     6     4    1
    10     8     3    1
    11     8     9    1
    12     9    10    1
    13    10    11    1
    14    11    13    1
    15    12    13    1
    16    12     8    1
    17    14    13    1
    18    14    15    1
    19    15    17   am
    20    16    17    1
    21    27    25    1
    22    20     1    1
    23    23    24   ar
    24    25    28   ar
    25    26    29   ar
    26     1     2   ar
    27     3     7   ar
    28     4     5   ar
    29    15    18    2
    30    20    21    1
    31    17    19    1
@<TRIPOS>MOLECULE
MolPort-046-956-104 MCULE-7546330212 PubChem-110095008
 29 31 0 0 0
SMALL
GASTEIGER

@<TRIPOS>ATOM
      1 C          12.7361   42.1984    6.5042 C.ar    1  UNL1        0.0528
      2 C          12.8220   41.1878    7.4646 C.ar    1  UNL1        0.0294
      3 C          14.0111   41.0063    8.1757 C.ar    1  UNL1        0.0608
      4 C          15.0234   42.8046    6.9993 C.ar    1  UNL1        0.0602
      5 C          13.8509   43.0142    6.2715 C.ar    1  UNL1        0.0294
      6 C          16.2104   43.6653    6.7579 C.3     1  UNL1        0.0521
      7 N          15.0803   41.8137    7.9283 N.ar    1  UNL1       -0.2539
      8 C          14.0952   39.9220    9.1969 C.3     1  UNL1        0.0563
      9 C          13.0135   40.0847   10.2522 C.3     1  UNL1        0.0087
     10 C          13.1044   38.9275   11.2301 C.3     1  UNL1        0.0178
     11 C          14.4833   38.9051   11.8911 C.3     1  UNL1        0.0725
     12 C          15.4785   39.9016    9.8519 C.3     1  UNL1        0.0784
     13 N          15.5875   38.8926   10.9176 N.3     1  UNL1       -0.2647
     14 C          15.9368   37.5494   10.4326 C.3     1  UNL1        0.1584
     15 C          17.4091   37.2763   10.3841 C.2     1  UNL1        0.2389
     16 C          19.6512   37.7190    9.3244 C.3     1  UNL1        0.1107
     17 N          18.2200   37.9498    9.4211 N.am    1  UNL1       -0.3015
     18 O          17.9284   36.4912   11.2218 O.2     1  UNL1       -0.2736
     19 H          17.7967   38.5896    8.8041 H       1  UNL1        0.1495
     20 N          11.5045   42.3652    5.7875 N.pl3   1  UNL1       -0.2825
     21 H          11.3830   43.2247    5.3231 H       1  UNL1        0.1551
     22 C           9.5627   38.5490    3.4667 C.3     1  UNL1        0.0522
     23 C           9.4839   39.5681    4.5453 C.ar    1  UNL1        0.0634
     24 C           8.3885   39.5879    5.4066 C.ar    1  UNL1        0.0296
     25 C           8.3514   40.5589    6.4053 C.ar    1  UNL1        0.0634
     26 C          10.4304   41.4225    5.6708 C.ar    1  UNL1        0.2200
     27 C           7.2017   40.6155    7.3451 C.3     1  UNL1        0.0522
     28 N           9.3665   41.4539    6.5196 N.ar    1  UNL1       -0.2179
     29 N          10.4799   40.4806    4.6917 N.ar    1  UNL1       -0.2179
@<TRIPOS>BOND
     1    22    23    1
     2    23    29   ar
     3    24    25   ar
     4    26    28   ar
     5    26    20    1
     6     2     3   ar
     7     4     7   ar
     8     5     1   ar
     9     6     4    1
    10     8     3    1
    11     8     9    1
    12     9    10    1
    13    10    11    1
    14    11    13    1
    15    12    13    1
    16    12     8    1
    17    14    13    1
    18    14    15    1
    19    15    17   am
    20    16    17    1
    21    27    25    1
    22    20     1    1
    23    23    24   ar
    24    25    28   ar
    25    26    29   ar
    26     1     2   ar
    27     3     7   ar
    28     4     5   ar
    29    15    18    2
    30    20    21    1
    31    17    19    1
@<TRIPOS>MOLECULE
MolPort-046-956-104 MCULE-7546330212 PubChem-110095008
 29 31 0 0 0
SMALL
GASTEIGER

@<TRIPOS>ATOM
      1 C          14.1023   42.4529    6.7799 C.ar    1  UNL1        0.0528
      2 C          14.2464   41.4897    7.7811 C.ar    1  UNL1        0.0294
      3 C          15.4478   41.3996    8.4889 C.ar    1  UNL1        0.0608
      4 C          16.3586   43.1959    7.2293 C.ar    1  UNL1        0.0602
      5 C          15.1721   43.3141    6.5035 C.ar    1  UNL1        0.0294
      6 C          17.4981   44.1052    6.9417 C.3     1  UNL1        0.0521
      7 N          16.4724   42.2495    8.1985 N.ar    1  UNL1       -0.2539
      8 C          15.5943   40.3653    9.5540 C.3     1  UNL1        0.0563
      9 C          17.0505   40.2055    9.9593 C.3     1  UNL1        0.0087
     10 C          17.1380   39.1891   11.0831 C.3     1  UNL1        0.0178
     11 C          16.5712   37.8457   10.6220 C.3     1  UNL1        0.0725
     12 C          15.0214   39.0243    9.0887 C.3     1  UNL1        0.0784
     13 N          15.2065   37.9529   10.0804 N.3     1  UNL1       -0.2647
     14 C          14.1544   37.9025   11.1062 C.3     1  UNL1        0.1584
     15 C          12.7833   38.2286   10.5979 C.2     1  UNL1        0.2389
     16 C          10.7348   37.5225    9.3131 C.3     1  UNL1        0.1107
     17 N          12.0642   37.2584    9.8363 N.am    1  UNL1       -0.3015
     18 O          12.2563   39.3367   10.8846 O.2     1  UNL1       -0.2736
     19 H          12.4816   36.3842    9.6605 H       1  UNL1        0.1495
     20 N          12.8592   42.5260    6.0675 N.pl3   1  UNL1       -0.2825
     21 H          12.7632   43.2725    5.4329 H       1  UNL1        0.1551
     22 C           9.0092   40.9835    8.6208 C.3     1  UNL1        0.0522
     23 C           9.8689   40.8834    7.4129 C.ar    1  UNL1        0.0634
     24 C           9.5771   39.9437    6.4260 C.ar    1  UNL1        0.0296
     25 C          10.4069   39.8809    5.3084 C.ar    1  UNL1        0.0634
     26 C          11.7405   41.6354    6.1748 C.ar    1  UNL1        0.2200
     27 C          10.1318   38.8935    4.2325 C.3     1  UNL1        0.0522
     28 N          11.4677   40.7224    5.2025 N.ar    1  UNL1       -0.2179
     29 N          10.9394   41.7080    7.2708 N.ar    1  UNL1       -0.2179
@<TRIPOS>BOND
     1    22    23    1
     2    23    29   ar
     3    24    25   ar
     4    26    28   ar
     5    26    20    1
     6     2     3   ar
     7     4     7   ar
     8     5     1   ar
     9     6     4    1
    10     8     3    1
    11     8     9    1
    12     9    10    1
    13    10    11    1
    14    11    13    1
    15    12    13    1
    16    12     8    1
    17    14    13    1
    18    14    15    1
    19    15    17   am
    20    16    17    1
    21    27    25    1
    22    20     1    1
    23    23    24   ar
    24    25    28   ar
    25    26    29   ar
    26     1     2   ar
    27     3     7   ar
    28     4     5   ar
    29    15    18    2
    30    20    21    1
    31    17    19    1
