@<TRIPOS>MOLECULE
MolPort-002-455-729 CHEMBL1475516 CSC026739902 CSSS00026739902 MCULE-9128102949 PubChem-2134008 Z57477982 ZINC02685901
 30 31 0 0 0
SMALL
GASTEIGER

@<TRIPOS>ATOM
      1 C          10.7119   41.7908    7.9065 C.2     1  UNL1        0.3212
      2 O          11.0138   42.1608    9.0732 O.2     1  UNL1       -0.2509
      3 N           9.3434   41.6392    7.5167 N.am    1  UNL1       -0.2542
      4 N          11.7398   41.5181    6.9570 N.am    1  UNL1       -0.2177
      5 H           9.1633   41.3475    6.5938 H       1  UNL1        0.1578
      6 H          11.4962   41.2304    6.0475 H       1  UNL1        0.1744
      7 C           6.2816   42.6478    9.1091 C.ar    1  UNL1        0.0857
      8 C           6.8892   41.8228   10.0485 C.ar    1  UNL1        0.0408
      9 C           6.3475   41.4730   11.3916 C.3     1  UNL1        0.0500
     10 C           8.2157   41.8794    8.3663 C.ar    1  UNL1        0.1085
     11 C           7.1445   42.6779    8.0286 C.ar    1  UNL1        0.0153
     12 C           6.9720   43.4192    6.7461 C.3     1  UNL1        0.0342
     13 N           8.0701   41.3518    9.5986 N.ar    1  UNL1       -0.3451
     14 H           8.6925   40.7514   10.0690 H       1  UNL1        0.1668
     15 C           4.9872   43.3490    9.2324 C.2     1  UNL1        0.3421
     16 O           4.8341   44.4889    8.7144 O.2     1  UNL1       -0.2449
     17 O           3.9335   42.7467    9.9230 O.3     1  UNL1       -0.4454
     18 C           3.2902   40.4474   10.1326 C.3     1  UNL1        0.0513
     19 C           3.1361   41.7277    9.3386 C.3     1  UNL1        0.2089
     20 C          13.8341   42.8164    6.9337 C.2     1  UNL1        0.2622
     21 O          13.2639   43.7262    6.2709 O.2     1  UNL1       -0.2686
     22 N          13.0913   41.6536    7.2994 N.am    1  UNL1       -0.2291
     23 H          13.5371   40.9336    7.8015 H       1  UNL1        0.1732
     24 C          15.2693   42.9578    7.2845 C.ar    1  UNL1        0.0654
     25 C          15.8463   41.9580    8.0855 C.ar    1  UNL1        0.0054
     26 C          17.1868   42.0242    8.4683 C.ar    1  UNL1        0.0002
     27 C          17.9767   43.0942    8.0520 C.ar    1  UNL1        0.0009
     28 C          17.4268   44.0933    7.2489 C.ar    1  UNL1        0.0115
     29 C          16.0843   44.0391    6.8583 C.ar    1  UNL1        0.0621
     30 CL         15.5227   45.3263    5.7996 Cl      1  UNL1       -0.0821
@<TRIPOS>BOND
     1    18    19    1
     2    19    17    1
     3    15    17    1
     4    15     7    1
     5     8    13   ar
     6     9     8    1
     7    10     3    1
     8     1     4   am
     9    20    24    1
    10    25    26   ar
    11    27    28   ar
    12    29    30    1
    13    29    24   ar
    14    11     7   ar
    15    12    11    1
    16    13    10   ar
    17     3     1   am
    18     4    22    1
    19    22    20   am
    20    15    16    2
    21     7     8   ar
    22    10    11   ar
    23     1     2    2
    24    20    21    2
    25    24    25   ar
    26    26    27   ar
    27    28    29   ar
    28    13    14    1
    29     3     5    1
    30     4     6    1
    31    22    23    1
@<TRIPOS>MOLECULE
MolPort-002-455-729 CHEMBL1475516 CSC026739902 CSSS00026739902 MCULE-9128102949 PubChem-2134008 Z57477982 ZINC02685901
 30 31 0 0 0
SMALL
GASTEIGER

@<TRIPOS>ATOM
      1 C          10.8538   42.0484    6.6570 C.2     1  UNL1        0.3212
      2 O          10.9914   42.2976    7.8851 O.2     1  UNL1       -0.2509
      3 N           9.5564   42.0292    6.0537 N.am    1  UNL1       -0.2542
      4 N          11.9994   41.7815    5.8513 N.am    1  UNL1       -0.2177
      5 H           9.5055   41.8287    5.0912 H       1  UNL1        0.1578
      6 H          11.8841   41.5885    4.8928 H       1  UNL1        0.1744
      7 C           6.5608   41.9976    8.0421 C.ar    1  UNL1        0.0857
      8 C           6.5487   43.2514    7.4420 C.ar    1  UNL1        0.0408
      9 C           5.5059   44.3005    7.6200 C.3     1  UNL1        0.0500
     10 C           8.3261   42.2793    6.7431 C.ar    1  UNL1        0.1085
     11 C           7.7103   41.3789    7.5852 C.ar    1  UNL1        0.0153
     12 C           8.2039   40.0123    7.9214 C.3     1  UNL1        0.0342
     13 N           7.6248   43.4270    6.6483 N.ar    1  UNL1       -0.3451
     14 H           7.8500   44.2227    6.1141 H       1  UNL1        0.1668
     15 C           5.5596   41.4370    8.9724 C.2     1  UNL1        0.3421
     16 O           4.4514   41.0235    8.5341 O.2     1  UNL1       -0.2449
     17 O           5.8431   41.3651   10.3379 O.3     1  UNL1       -0.4454
     18 C           4.1188   40.2444   11.5689 C.3     1  UNL1        0.0513
     19 C           4.8404   41.5532   11.3252 C.3     1  UNL1        0.2089
     20 C          14.0401   42.9979    6.5055 C.2     1  UNL1        0.2622
     21 O          13.5416   44.0715    6.0682 O.2     1  UNL1       -0.2686
     22 N          13.2866   41.7899    6.4038 N.am    1  UNL1       -0.2291
     23 H          13.6788   40.9471    6.7278 H       1  UNL1        0.1732
     24 C          15.4088   43.0083    7.0794 C.ar    1  UNL1        0.0654
     25 C          16.3077   43.9779    6.6040 C.ar    1  UNL1        0.0054
     26 C          17.6162   44.0462    7.0847 C.ar    1  UNL1        0.0002
     27 C          18.0483   43.1443    8.0552 C.ar    1  UNL1        0.0009
     28 C          17.1699   42.1793    8.5479 C.ar    1  UNL1        0.0115
     29 C          15.8557   42.0997    8.0742 C.ar    1  UNL1        0.0621
     30 CL         14.8281   40.8785    8.8130 Cl      1  UNL1       -0.0821
@<TRIPOS>BOND
     1    18    19    1
     2    19    17    1
     3    15    17    1
     4    15     7    1
     5     8    13   ar
     6     9     8    1
     7    10     3    1
     8     1     4   am
     9    20    24    1
    10    25    26   ar
    11    27    28   ar
    12    29    30    1
    13    29    24   ar
    14    11     7   ar
    15    12    11    1
    16    13    10   ar
    17     3     1   am
    18     4    22    1
    19    22    20   am
    20    15    16    2
    21     7     8   ar
    22    10    11   ar
    23     1     2    2
    24    20    21    2
    25    24    25   ar
    26    26    27   ar
    27    28    29   ar
    28    13    14    1
    29     3     5    1
    30     4     6    1
    31    22    23    1
@<TRIPOS>MOLECULE
MolPort-002-455-729 CHEMBL1475516 CSC026739902 CSSS00026739902 MCULE-9128102949 PubChem-2134008 Z57477982 ZINC02685901
 30 31 0 0 0
SMALL
GASTEIGER

@<TRIPOS>ATOM
      1 C          10.0883   40.8958   10.1956 C.2     1  UNL1        0.3212
      2 O           9.9473   40.8980    8.9429 O.2     1  UNL1       -0.2509
      3 N          11.3913   40.8694   10.7865 N.am    1  UNL1       -0.2542
      4 N           8.9413   40.9204   11.0420 N.am    1  UNL1       -0.2177
      5 H          11.4448   40.8686   11.7695 H       1  UNL1        0.1578
      6 H           9.0595   40.9195   12.0194 H       1  UNL1        0.1744
      7 C          14.1984   41.3485    8.5912 C.ar    1  UNL1        0.0857
      8 C          14.5880   40.2899    9.4036 C.ar    1  UNL1        0.0408
      9 C          15.8851   39.5600    9.3336 C.3     1  UNL1        0.0500
     10 C          12.6238   40.8439   10.0571 C.ar    1  UNL1        0.1085
     11 C          12.9309   41.6983    9.0204 C.ar    1  UNL1        0.0153
     12 C          12.0537   42.7783    8.4837 C.3     1  UNL1        0.0342
     13 N          13.6294   39.9791   10.2997 N.ar    1  UNL1       -0.3451
     14 H          13.6577   39.2722   10.9843 H       1  UNL1        0.1668
     15 C          14.9699   41.9730    7.4972 C.2     1  UNL1        0.3421
     16 O          14.4261   42.1786    6.3777 O.2     1  UNL1       -0.2449
     17 O          16.3022   42.3357    7.7054 O.3     1  UNL1       -0.4454
     18 C          18.0544   43.9319    8.0607 C.3     1  UNL1        0.0513
     19 C          16.8234   43.5766    7.2536 C.3     1  UNL1        0.2089
     20 C           6.5622   41.5387   11.2141 C.2     1  UNL1        0.2622
     21 O           6.7710   42.0278   12.3584 O.2     1  UNL1       -0.2686
     22 N           7.6486   40.9459   10.5030 N.am    1  UNL1       -0.2291
     23 H           7.4864   40.5476    9.6174 H       1  UNL1        0.1732
     24 C           5.1890   41.5567   10.6511 C.ar    1  UNL1        0.0654
     25 C           4.1344   41.8957   11.5155 C.ar    1  UNL1        0.0054
     26 C           2.8135   41.9241   11.0657 C.ar    1  UNL1        0.0002
     27 C           2.5244   41.6158    9.7378 C.ar    1  UNL1        0.0009
     28 C           3.5569   41.2853    8.8600 C.ar    1  UNL1        0.0115
     29 C           4.8854   41.2528    9.2982 C.ar    1  UNL1        0.0621
     30 CL          6.1025   40.8781    8.0852 Cl      1  UNL1       -0.0821
@<TRIPOS>BOND
     1    18    19    1
     2    19    17    1
     3    15    17    1
     4    15     7    1
     5     8    13   ar
     6     9     8    1
     7    10     3    1
     8     1     4   am
     9    20    24    1
    10    25    26   ar
    11    27    28   ar
    12    29    30    1
    13    29    24   ar
    14    11     7   ar
    15    12    11    1
    16    13    10   ar
    17     3     1   am
    18     4    22    1
    19    22    20   am
    20    15    16    2
    21     7     8   ar
    22    10    11   ar
    23     1     2    2
    24    20    21    2
    25    24    25   ar
    26    26    27   ar
    27    28    29   ar
    28    13    14    1
    29     3     5    1
    30     4     6    1
    31    22    23    1
@<TRIPOS>MOLECULE
MolPort-002-455-729 CHEMBL1475516 CSC026739902 CSSS00026739902 MCULE-9128102949 PubChem-2134008 Z57477982 ZINC02685901
 30 31 0 0 0
SMALL
GASTEIGER

@<TRIPOS>ATOM
      1 C          10.9033   42.1810    7.2806 C.2     1  UNL1        0.3212
      2 O          11.1627   42.9989    8.2043 O.2     1  UNL1       -0.2509
      3 N           9.6135   41.5687    7.1845 N.am    1  UNL1       -0.2542
      4 N          11.9009   41.8565    6.3151 N.am    1  UNL1       -0.2177
      5 H           9.4641   40.9372    6.4441 H       1  UNL1        0.1578
      6 H          11.6906   41.2176    5.5962 H       1  UNL1        0.1744
      7 C           7.2714   41.7870    9.9038 C.ar    1  UNL1        0.0857
      8 C           6.6501   42.4823    8.8728 C.ar    1  UNL1        0.0408
      9 C           5.3175   43.1454    8.9386 C.3     1  UNL1        0.0500
     10 C           8.5233   41.8042    8.0830 C.ar    1  UNL1        0.1085
     11 C           8.4780   41.3540    9.3847 C.ar    1  UNL1        0.0153
     12 C           9.5330   40.5575   10.0753 C.3     1  UNL1        0.0342
     13 N           7.4114   42.4950    7.7598 N.ar    1  UNL1       -0.3451
     14 H           7.2004   42.9179    6.8961 H       1  UNL1        0.1668
     15 C           6.7568   41.5548   11.2689 C.2     1  UNL1        0.3421
     16 O           7.2733   42.1566   12.2499 O.2     1  UNL1       -0.2449
     17 O           5.6970   40.6683   11.4707 O.3     1  UNL1       -0.4454
     18 C           3.5285   40.4701   10.4692 C.3     1  UNL1        0.0513
     19 C           4.3520   41.1128   11.5655 C.3     1  UNL1        0.2089
     20 C          14.1786   41.9232    7.2530 C.2     1  UNL1        0.2622
     21 O          13.8993   40.9480    8.0035 O.2     1  UNL1       -0.2686
     22 N          13.1759   42.4335    6.3747 N.am    1  UNL1       -0.2291
     23 H          13.3843   43.2053    5.8001 H       1  UNL1        0.1732
     24 C          15.5266   42.5397    7.3272 C.ar    1  UNL1        0.0654
     25 C          16.3841   42.1106    8.3543 C.ar    1  UNL1        0.0054
     26 C          17.6633   42.6498    8.4987 C.ar    1  UNL1        0.0002
     27 C          18.1093   43.6287    7.6128 C.ar    1  UNL1        0.0009
     28 C          17.2780   44.0630    6.5803 C.ar    1  UNL1        0.0115
     29 C          15.9933   43.5309    6.4246 C.ar    1  UNL1        0.0621
     30 CL         15.0624   44.1172    5.0524 Cl      1  UNL1       -0.0821
@<TRIPOS>BOND
     1    18    19    1
     2    19    17    1
     3    15    17    1
     4    15     7    1
     5     8    13   ar
     6     9     8    1
     7    10     3    1
     8     1     4   am
     9    20    24    1
    10    25    26   ar
    11    27    28   ar
    12    29    30    1
    13    29    24   ar
    14    11     7   ar
    15    12    11    1
    16    13    10   ar
    17     3     1   am
    18     4    22    1
    19    22    20   am
    20    15    16    2
    21     7     8   ar
    22    10    11   ar
    23     1     2    2
    24    20    21    2
    25    24    25   ar
    26    26    27   ar
    27    28    29   ar
    28    13    14    1
    29     3     5    1
    30     4     6    1
    31    22    23    1
@<TRIPOS>MOLECULE
MolPort-002-455-729 CHEMBL1475516 CSC026739902 CSSS00026739902 MCULE-9128102949 PubChem-2134008 Z57477982 ZINC02685901
 30 31 0 0 0
SMALL
GASTEIGER

@<TRIPOS>ATOM
      1 C          11.0926   41.4260    7.9892 C.2     1  UNL1        0.3212
      2 O          11.2999   41.8709    9.1504 O.2     1  UNL1       -0.2509
      3 N           9.7717   41.0780    7.5626 N.am    1  UNL1       -0.2542
      4 N          12.1812   41.2645    7.0830 N.am    1  UNL1       -0.2177
      5 H           9.6657   40.7350    6.6459 H       1  UNL1        0.1578
      6 H          12.0113   40.9173    6.1775 H       1  UNL1        0.1744
      7 C           7.2680   41.3365   10.1302 C.ar    1  UNL1        0.0857
      8 C           6.5370   41.3669    8.9482 C.ar    1  UNL1        0.0408
      9 C           5.0559   41.4817    8.8340 C.3     1  UNL1        0.0500
     10 C           8.5921   41.1906    8.3672 C.ar    1  UNL1        0.1085
     11 C           8.5914   41.2226    9.7449 C.ar    1  UNL1        0.0153
     12 C           9.7928   41.1467   10.6253 C.3     1  UNL1        0.0342
     13 N           7.3419   41.2781    7.8699 N.ar    1  UNL1       -0.3451
     14 H           7.0741   41.2773    6.9225 H       1  UNL1        0.1668
     15 C           6.7475   41.4092   11.5107 C.2     1  UNL1        0.3421
     16 O           5.7018   42.0701   11.7580 O.2     1  UNL1       -0.2449
     17 O           7.4151   40.7441   12.5412 O.3     1  UNL1       -0.4454
     18 C           8.6159   41.5996   14.4308 C.3     1  UNL1        0.0513
     19 C           8.7008   41.1476   12.9880 C.3     1  UNL1        0.2089
     20 C          14.2241   42.6090    6.7806 C.2     1  UNL1        0.2622
     21 O          13.6891   43.2043    5.8051 O.2     1  UNL1       -0.2686
     22 N          13.4892   41.5928    7.4622 N.am    1  UNL1       -0.2291
     23 H          13.9092   41.1138    8.2128 H       1  UNL1        0.1732
     24 C          15.6142   42.9509    7.1722 C.ar    1  UNL1        0.0654
     25 C          16.3275   42.0095    7.9332 C.ar    1  UNL1        0.0054
     26 C          17.6354   42.2608    8.3506 C.ar    1  UNL1        0.0002
     27 C          18.2554   43.4614    8.0097 C.ar    1  UNL1        0.0009
     28 C          17.5691   44.4064    7.2471 C.ar    1  UNL1        0.0115
     29 C          16.2574   44.1671    6.8226 C.ar    1  UNL1        0.0621
     30 CL         15.5186   45.4086    5.8197 Cl      1  UNL1       -0.0821
@<TRIPOS>BOND
     1    18    19    1
     2    19    17    1
     3    15    17    1
     4    15     7    1
     5     8    13   ar
     6     9     8    1
     7    10     3    1
     8     1     4   am
     9    20    24    1
    10    25    26   ar
    11    27    28   ar
    12    29    30    1
    13    29    24   ar
    14    11     7   ar
    15    12    11    1
    16    13    10   ar
    17     3     1   am
    18     4    22    1
    19    22    20   am
    20    15    16    2
    21     7     8   ar
    22    10    11   ar
    23     1     2    2
    24    20    21    2
    25    24    25   ar
    26    26    27   ar
    27    28    29   ar
    28    13    14    1
    29     3     5    1
    30     4     6    1
    31    22    23    1
@<TRIPOS>MOLECULE
MolPort-002-455-729 CHEMBL1475516 CSC026739902 CSSS00026739902 MCULE-9128102949 PubChem-2134008 Z57477982 ZINC02685901
 30 31 0 0 0
SMALL
GASTEIGER

@<TRIPOS>ATOM
      1 C           9.4603   41.2291   10.5811 C.2     1  UNL1        0.3212
      2 O           9.9314   42.1896    9.9142 O.2     1  UNL1       -0.2509
      3 N           8.0465   41.0545   10.7166 N.am    1  UNL1       -0.2542
      4 N          10.3393   40.3002   11.2113 N.am    1  UNL1       -0.2177
      5 H           7.7321   40.2881   11.2486 H       1  UNL1        0.1578
      6 H           9.9640   39.5522   11.7298 H       1  UNL1        0.1744
      7 C           5.0996   42.8270    9.6670 C.ar    1  UNL1        0.0857
      8 C           6.1264   43.4385    8.9569 C.ar    1  UNL1        0.0408
      9 C           5.9786   44.5664    7.9947 C.3     1  UNL1        0.0500
     10 C           7.0539   41.9094   10.1376 C.ar    1  UNL1        0.1085
     11 C           5.7078   41.8429   10.4249 C.ar    1  UNL1        0.0153
     12 C           5.0579   40.8888   11.3692 C.3     1  UNL1        0.0342
     13 N           7.3209   42.8810    9.2417 N.ar    1  UNL1       -0.3451
     14 H           8.1995   43.1301    8.8741 H       1  UNL1        0.1668
     15 C           3.6596   43.1537    9.6251 C.2     1  UNL1        0.3421
     16 O           2.8199   42.3789   10.1600 O.2     1  UNL1       -0.2449
     17 O           3.2300   44.3223    8.9929 O.3     1  UNL1       -0.4454
     18 C           2.6636   45.7805    7.1771 C.3     1  UNL1        0.0513
     19 C           3.4168   44.5374    7.6021 C.3     1  UNL1        0.2089
     20 C          12.4520   39.8242   10.0357 C.2     1  UNL1        0.2622
     21 O          11.8253   39.1303    9.1884 O.2     1  UNL1       -0.2686
     22 N          11.7293   40.4365   11.1035 N.am    1  UNL1       -0.2291
     23 H          12.2167   40.9644   11.7766 H       1  UNL1        0.1732
     24 C          13.9261   39.9567    9.9252 C.ar    1  UNL1        0.0654
     25 C          14.7117   39.3485   10.9188 C.ar    1  UNL1        0.0054
     26 C          16.1043   39.4370   10.8924 C.ar    1  UNL1        0.0002
     27 C          16.7372   40.1355    9.8660 C.ar    1  UNL1        0.0009
     28 C          15.9773   40.7394    8.8642 C.ar    1  UNL1        0.0115
     29 C          14.5805   40.6585    8.8791 C.ar    1  UNL1        0.0621
     30 CL         13.7368   41.4112    7.5320 Cl      1  UNL1       -0.0821
@<TRIPOS>BOND
     1    18    19    1
     2    19    17    1
     3    15    17    1
     4    15     7    1
     5     8    13   ar
     6     9     8    1
     7    10     3    1
     8     1     4   am
     9    20    24    1
    10    25    26   ar
    11    27    28   ar
    12    29    30    1
    13    29    24   ar
    14    11     7   ar
    15    12    11    1
    16    13    10   ar
    17     3     1   am
    18     4    22    1
    19    22    20   am
    20    15    16    2
    21     7     8   ar
    22    10    11   ar
    23     1     2    2
    24    20    21    2
    25    24    25   ar
    26    26    27   ar
    27    28    29   ar
    28    13    14    1
    29     3     5    1
    30     4     6    1
    31    22    23    1
@<TRIPOS>MOLECULE
MolPort-002-455-729 CHEMBL1475516 CSC026739902 CSSS00026739902 MCULE-9128102949 PubChem-2134008 Z57477982 ZINC02685901
 30 31 0 0 0
SMALL
GASTEIGER

@<TRIPOS>ATOM
      1 C          10.5581   40.7808   10.0599 C.2     1  UNL1        0.3212
      2 O          10.6860   41.3741    8.9549 O.2     1  UNL1       -0.2509
      3 N          11.6937   40.2226   10.7279 N.am    1  UNL1       -0.2542
      4 N           9.2700   40.6601   10.6590 N.am    1  UNL1       -0.2177
      5 H          11.5379   39.7697   11.5881 H       1  UNL1        0.1578
      6 H           9.1781   40.1962   11.5224 H       1  UNL1        0.1744
      7 C          15.1894   39.8297    9.9836 C.ar    1  UNL1        0.0857
      8 C          14.7757   40.8353    9.1176 C.ar    1  UNL1        0.0408
      9 C          15.6309   41.5501    8.1289 C.3     1  UNL1        0.0500
     10 C          13.0398   40.2723   10.2410 C.ar    1  UNL1        0.1085
     11 C          14.0633   39.4736   10.7033 C.ar    1  UNL1        0.0153
     12 C          13.9547   38.4376   11.7706 C.3     1  UNL1        0.0342
     13 N          13.4640   41.1082    9.2719 N.ar    1  UNL1       -0.3451
     14 H          12.9305   41.7749    8.7818 H       1  UNL1        0.1668
     15 C          16.5450   39.2574   10.1138 C.2     1  UNL1        0.3421
     16 O          17.3598   39.7452   10.9440 O.2     1  UNL1       -0.2449
     17 O          16.9220   38.1749    9.3163 O.3     1  UNL1       -0.4454
     18 C          15.4789   36.3729    8.6724 C.3     1  UNL1        0.0513
     19 C          16.5511   36.8417    9.6335 C.3     1  UNL1        0.2089
     20 C           6.9981   41.6041   10.7975 C.2     1  UNL1        0.2622
     21 O           7.0152   41.4641   12.0515 O.2     1  UNL1       -0.2686
     22 N           8.1333   41.1921   10.0367 N.am    1  UNL1       -0.2291
     23 H           8.1171   41.2835    9.0566 H       1  UNL1        0.1732
     24 C           5.7875   42.1570   10.1405 C.ar    1  UNL1        0.0654
     25 C           5.9618   43.2280    9.2479 C.ar    1  UNL1        0.0054
     26 C           4.8724   43.8109    8.5987 C.ar    1  UNL1        0.0002
     27 C           3.5857   43.3283    8.8298 C.ar    1  UNL1        0.0009
     28 C           3.3905   42.2599    9.7051 C.ar    1  UNL1        0.0115
     29 C           4.4740   41.6668   10.3626 C.ar    1  UNL1        0.0621
     30 CL          4.1072   40.2921   11.3964 Cl      1  UNL1       -0.0821
@<TRIPOS>BOND
     1    18    19    1
     2    19    17    1
     3    15    17    1
     4    15     7    1
     5     8    13   ar
     6     9     8    1
     7    10     3    1
     8     1     4   am
     9    20    24    1
    10    25    26   ar
    11    27    28   ar
    12    29    30    1
    13    29    24   ar
    14    11     7   ar
    15    12    11    1
    16    13    10   ar
    17     3     1   am
    18     4    22    1
    19    22    20   am
    20    15    16    2
    21     7     8   ar
    22    10    11   ar
    23     1     2    2
    24    20    21    2
    25    24    25   ar
    26    26    27   ar
    27    28    29   ar
    28    13    14    1
    29     3     5    1
    30     4     6    1
    31    22    23    1
@<TRIPOS>MOLECULE
MolPort-002-455-729 CHEMBL1475516 CSC026739902 CSSS00026739902 MCULE-9128102949 PubChem-2134008 Z57477982 ZINC02685901
 30 31 0 0 0
SMALL
GASTEIGER

@<TRIPOS>ATOM
      1 C          11.4776   40.8644    8.6782 C.2     1  UNL1        0.3212
      2 O          11.3390   42.0418    8.2493 O.2     1  UNL1       -0.2509
      3 N          10.3484   39.9961    8.8141 N.am    1  UNL1       -0.2542
      4 N          12.7716   40.3834    9.0343 N.am    1  UNL1       -0.2177
      5 H          10.5124   39.0868    9.1540 H       1  UNL1        0.1578
      6 H          12.8720   39.4625    9.3677 H       1  UNL1        0.1744
      7 C           6.9934   41.2723    8.6052 C.ar    1  UNL1        0.0857
      8 C           7.1100   40.4578    7.4848 C.ar    1  UNL1        0.0408
      9 C           6.0521   40.2091    6.4656 C.3     1  UNL1        0.0500
     10 C           8.9977   40.3486    8.4933 C.ar    1  UNL1        0.1085
     11 C           8.2153   41.1951    9.2486 C.ar    1  UNL1        0.0153
     12 C           8.6261   41.8801   10.5081 C.3     1  UNL1        0.0342
     13 N           8.3322   39.8923    7.4132 N.ar    1  UNL1       -0.3451
     14 H           8.6668   39.2778    6.7205 H       1  UNL1        0.1668
     15 C           5.8153   42.0574    9.0267 C.2     1  UNL1        0.3421
     16 O           5.3838   41.9646   10.2085 O.2     1  UNL1       -0.2449
     17 O           5.1808   42.9030    8.1143 O.3     1  UNL1       -0.4454
     18 C           4.0744   44.9991    7.7582 C.3     1  UNL1        0.0513
     19 C           5.3688   44.3100    8.1363 C.3     1  UNL1        0.2089
     20 C          14.3112   41.7213    7.6517 C.2     1  UNL1        0.2622
     21 O          13.6516   41.4163    6.6201 O.2     1  UNL1       -0.2686
     22 N          13.9022   41.2021    8.9168 N.am    1  UNL1       -0.2291
     23 H          14.4242   41.4235    9.7216 H       1  UNL1        0.1732
     24 C          15.5154   42.5792    7.5219 C.ar    1  UNL1        0.0654
     25 C          16.6623   42.2063    8.2427 C.ar    1  UNL1        0.0054
     26 C          17.8312   42.9667    8.1829 C.ar    1  UNL1        0.0002
     27 C          17.8736   44.1156    7.3953 C.ar    1  UNL1        0.0009
     28 C          16.7494   44.4994    6.6642 C.ar    1  UNL1        0.0115
     29 C          15.5713   43.7462    6.7156 C.ar    1  UNL1        0.0621
     30 CL         14.2417   44.2996    5.7062 Cl      1  UNL1       -0.0821
@<TRIPOS>BOND
     1    18    19    1
     2    19    17    1
     3    15    17    1
     4    15     7    1
     5     8    13   ar
     6     9     8    1
     7    10     3    1
     8     1     4   am
     9    20    24    1
    10    25    26   ar
    11    27    28   ar
    12    29    30    1
    13    29    24   ar
    14    11     7   ar
    15    12    11    1
    16    13    10   ar
    17     3     1   am
    18     4    22    1
    19    22    20   am
    20    15    16    2
    21     7     8   ar
    22    10    11   ar
    23     1     2    2
    24    20    21    2
    25    24    25   ar
    26    26    27   ar
    27    28    29   ar
    28    13    14    1
    29     3     5    1
    30     4     6    1
    31    22    23    1
@<TRIPOS>MOLECULE
MolPort-002-455-729 CHEMBL1475516 CSC026739902 CSSS00026739902 MCULE-9128102949 PubChem-2134008 Z57477982 ZINC02685901
 30 31 0 0 0
SMALL
GASTEIGER

@<TRIPOS>ATOM
      1 C           9.3399   41.6301    9.7572 C.2     1  UNL1        0.3212
      2 O           9.1413   40.3870    9.8242 O.2     1  UNL1       -0.2509
      3 N           8.2570   42.5542    9.9019 N.am    1  UNL1       -0.2542
      4 N          10.6563   42.1306    9.5353 N.am    1  UNL1       -0.2177
      5 H           8.4672   43.5140    9.8409 H       1  UNL1        0.1578
      6 H          10.8036   43.1027    9.4851 H       1  UNL1        0.1744
      7 C           4.6816   42.2173   10.0782 C.ar    1  UNL1        0.0857
      8 C           5.1543   41.1379   10.8157 C.ar    1  UNL1        0.0408
      9 C           4.3216   40.1093   11.5000 C.3     1  UNL1        0.0500
     10 C           6.8905   42.1896   10.1286 C.ar    1  UNL1        0.1085
     11 C           5.8084   42.8888    9.6398 C.ar    1  UNL1        0.0153
     12 C           5.8653   44.1240    8.8058 C.3     1  UNL1        0.0342
     13 N           6.5024   41.1177   10.8487 N.ar    1  UNL1       -0.3451
     14 H           7.0794   40.4611   11.3015 H       1  UNL1        0.1668
     15 C           3.2734   42.5778    9.8147 C.2     1  UNL1        0.3421
     16 O           2.9645   43.1845    8.7528 O.2     1  UNL1       -0.2449
     17 O           2.2853   42.2447   10.7434 O.3     1  UNL1       -0.4454
     18 C           1.0307   42.4042   12.7793 C.3     1  UNL1        0.0513
     19 C           2.3627   42.6493   12.1020 C.3     1  UNL1        0.2089
     20 C          12.1952   40.4500   10.4731 C.2     1  UNL1        0.2622
     21 O          11.6157   40.5413   11.5904 O.2     1  UNL1       -0.2686
     22 N          11.7430   41.2591    9.3877 N.am    1  UNL1       -0.2291
     23 H          12.2035   41.2038    8.5193 H       1  UNL1        0.1732
     24 C          13.3538   39.5345   10.3236 C.ar    1  UNL1        0.0654
     25 C          14.2009   39.3686   11.4321 C.ar    1  UNL1        0.0054
     26 C          15.3180   38.5342   11.3682 C.ar    1  UNL1        0.0002
     27 C          15.6057   37.8466   10.1907 C.ar    1  UNL1        0.0009
     28 C          14.7731   37.9896    9.0808 C.ar    1  UNL1        0.0115
     29 C          13.6503   38.8231    9.1315 C.ar    1  UNL1        0.0621
     30 CL         12.6471   38.8764    7.6880 Cl      1  UNL1       -0.0821
@<TRIPOS>BOND
     1    18    19    1
     2    19    17    1
     3    15    17    1
     4    15     7    1
     5     8    13   ar
     6     9     8    1
     7    10     3    1
     8     1     4   am
     9    20    24    1
    10    25    26   ar
    11    27    28   ar
    12    29    30    1
    13    29    24   ar
    14    11     7   ar
    15    12    11    1
    16    13    10   ar
    17     3     1   am
    18     4    22    1
    19    22    20   am
    20    15    16    2
    21     7     8   ar
    22    10    11   ar
    23     1     2    2
    24    20    21    2
    25    24    25   ar
    26    26    27   ar
    27    28    29   ar
    28    13    14    1
    29     3     5    1
    30     4     6    1
    31    22    23    1
@<TRIPOS>MOLECULE
MolPort-002-455-729 CHEMBL1475516 CSC026739902 CSSS00026739902 MCULE-9128102949 PubChem-2134008 Z57477982 ZINC02685901
 30 31 0 0 0
SMALL
GASTEIGER

@<TRIPOS>ATOM
      1 C          10.8722   41.6406    7.1284 C.2     1  UNL1        0.3212
      2 O          11.0754   41.9203    8.3408 O.2     1  UNL1       -0.2509
      3 N          11.8788   41.8851    6.1412 N.am    1  UNL1       -0.2542
      4 N           9.6275   41.0733    6.7268 N.am    1  UNL1       -0.2177
      5 H          11.6683   41.6485    5.2090 H       1  UNL1        0.1578
      6 H           9.4765   40.8568    5.7783 H       1  UNL1        0.1744
      7 C          15.1922   42.7401    7.2451 C.ar    1  UNL1        0.0857
      8 C          14.8689   43.7516    6.3480 C.ar    1  UNL1        0.0408
      9 C          15.7377   44.9015    5.9701 C.3     1  UNL1        0.0500
     10 C          13.1693   42.4476    6.4054 C.ar    1  UNL1        0.1085
     11 C          14.0902   41.9048    7.2751 C.ar    1  UNL1        0.0153
     12 C          13.9114   40.6620    8.0798 C.3     1  UNL1        0.0342
     13 N          13.6348   43.5763    5.8333 N.ar    1  UNL1       -0.3451
     14 H          13.1727   44.1497    5.1799 H       1  UNL1        0.1668
     15 C          16.4464   42.5843    8.0098 C.2     1  UNL1        0.3421
     16 O          17.1071   43.6022    8.3545 O.2     1  UNL1       -0.2449
     17 O          16.8985   41.3079    8.3509 O.3     1  UNL1       -0.4454
     18 C          18.0220   39.7432    9.7770 C.3     1  UNL1        0.0513
     19 C          17.0453   40.8980    9.7022 C.3     1  UNL1        0.2089
     20 C           7.7265   41.8510    8.0882 C.2     1  UNL1        0.2622
     21 O           7.8718   43.0166    7.6270 O.2     1  UNL1       -0.2686
     22 N           8.6162   40.8194    7.6622 N.am    1  UNL1       -0.2291
     23 H           8.5173   39.9126    8.0327 H       1  UNL1        0.1732
     24 C           6.6616   41.5882    9.0880 C.ar    1  UNL1        0.0654
     25 C           5.3945   41.2157    8.6084 C.ar    1  UNL1        0.0054
     26 C           4.3374   40.9626    9.4838 C.ar    1  UNL1        0.0002
     27 C           4.5314   41.0751   10.8592 C.ar    1  UNL1        0.0009
     28 C           5.7836   41.4349   11.3576 C.ar    1  UNL1        0.0115
     29 C           6.8516   41.6917   10.4909 C.ar    1  UNL1        0.0621
     30 CL          8.3943   42.0804   11.2407 Cl      1  UNL1       -0.0821
@<TRIPOS>BOND
     1    18    19    1
     2    19    17    1
     3    15    17    1
     4    15     7    1
     5     8    13   ar
     6     9     8    1
     7    10     3    1
     8     1     4   am
     9    20    24    1
    10    25    26   ar
    11    27    28   ar
    12    29    30    1
    13    29    24   ar
    14    11     7   ar
    15    12    11    1
    16    13    10   ar
    17     3     1   am
    18     4    22    1
    19    22    20   am
    20    15    16    2
    21     7     8   ar
    22    10    11   ar
    23     1     2    2
    24    20    21    2
    25    24    25   ar
    26    26    27   ar
    27    28    29   ar
    28    13    14    1
    29     3     5    1
    30     4     6    1
    31    22    23    1
