@<TRIPOS>MOLECULE
MolPort-007-723-574 ChemDiv-E157-6400 MCULE-4115465868 PubChem-22518102 ZINC000006818369 ZINC06818369
 28 30 0 0 0
SMALL
GASTEIGER

@<TRIPOS>ATOM
      1 C           9.0946   41.5898    6.5978 C.ar    1  UNL1        0.2593
      2 C          11.4646   41.7504    6.8358 C.ar    1  UNL1        0.1896
      3 N           9.7514   41.4842    5.4225 N.ar    1  UNL1       -0.1187
      4 N          11.0734   41.5746    5.5540 N.ar    1  UNL1       -0.1239
      5 S          10.1543   41.8029    7.8896 S.2     1  UNL1       -0.0102
      6 C          13.7274   42.9105    6.8404 C.2     1  UNL1        0.2531
      7 N          12.8272   41.8741    7.2535 N.am    1  UNL1       -0.2591
      8 O          13.3326   43.8088    6.0473 O.2     1  UNL1       -0.2697
      9 H          13.1744   41.1932    7.8741 H       1  UNL1        0.1571
     10 C          15.1230   42.9385    7.3368 C.ar    1  UNL1        0.0811
     11 C          16.0008   44.0111    7.0639 C.ar    1  UNL1        0.1445
     12 C          17.3097   43.9890    7.5565 C.ar    1  UNL1        0.0298
     13 C          17.7591   42.9099    8.3197 C.ar    1  UNL1        0.0023
     14 C          16.8999   41.8456    8.5947 C.ar    1  UNL1        0.0003
     15 C          15.5915   41.8611    8.1062 C.ar    1  UNL1        0.0068
     16 F          15.6080   45.0799    6.3275 F       1  UNL1       -0.2040
     17 S           7.3524   41.4895    6.7491 S.O2    1  UNL1        0.1010
     18 O           6.7345   41.6740    5.3913 O.2     1  UNL1       -0.1477
     19 O           6.9614   40.1405    7.2843 O.2     1  UNL1       -0.1477
     20 C           7.2935   44.0764    7.6560 C.3     1  UNL1        0.1392
     21 N           6.7869   42.7227    7.8366 N.pl3   1  UNL1       -0.1870
     22 C           5.8630   42.4233    8.9027 C.ar    1  UNL1        0.0689
     23 C           4.5369   42.8843    8.8559 C.ar    1  UNL1        0.0158
     24 C           3.6419   42.5892    9.8878 C.ar    1  UNL1       -0.0029
     25 C           4.0633   41.8291   10.9809 C.ar    1  UNL1       -0.0218
     26 C           3.1121   41.5148   12.0784 C.3     1  UNL1        0.0310
     27 C           5.3791   41.3648   11.0424 C.ar    1  UNL1       -0.0029
     28 C           6.2733   41.6602   10.0095 C.ar    1  UNL1        0.0158
@<TRIPOS>BOND
     1    20    21    1
     2    23    24   ar
     3    25    27   ar
     4    26    25    1
     5    28    22   ar
     6     1     5   ar
     7     2     7    1
     8     2     5   ar
     9     6    10    1
    10    11    16    1
    11    11    12   ar
    12    13    14   ar
    13    15    10   ar
    14    21    22    1
    15     3     4   ar
    16     7     6   am
    17    17    21    1
    18    17     1    1
    19    22    23   ar
    20    24    25   ar
    21    27    28   ar
    22     1     3   ar
    23     2     4   ar
    24     6     8    2
    25    10    11   ar
    26    12    13   ar
    27    14    15   ar
    28    17    18    2
    29    17    19    2
    30     7     9    1
@<TRIPOS>MOLECULE
MolPort-007-723-574 ChemDiv-E157-6400 MCULE-4115465868 PubChem-22518102 ZINC000006818369 ZINC06818369
 28 30 0 0 0
SMALL
GASTEIGER

@<TRIPOS>ATOM
      1 C           9.8075   42.1982    8.5395 C.ar    1  UNL1        0.2593
      2 C          12.1152   42.4765    7.9950 C.ar    1  UNL1        0.1896
      3 N          10.0612   42.0444    7.2220 N.ar    1  UNL1       -0.1187
      4 N          11.3480   42.2004    6.9170 N.ar    1  UNL1       -0.1239
      5 S          11.2080   42.5412    9.4103 S.2     1  UNL1       -0.0102
      6 C          14.2146   43.4739    6.9636 C.2     1  UNL1        0.2531
      7 N          13.5295   42.6862    7.9460 N.am    1  UNL1       -0.2591
      8 O          13.5616   44.0492    6.0500 O.2     1  UNL1       -0.2697
      9 H          14.0758   42.2552    8.6425 H       1  UNL1        0.1571
     10 C          15.6881   43.6206    7.0092 C.ar    1  UNL1        0.0811
     11 C          16.4593   43.8666    5.8516 C.ar    1  UNL1        0.1445
     12 C          17.8485   43.9973    5.9489 C.ar    1  UNL1        0.0298
     13 C          18.4834   43.8860    7.1872 C.ar    1  UNL1        0.0023
     14 C          17.7307   43.6430    8.3365 C.ar    1  UNL1        0.0003
     15 C          16.3431   43.5115    8.2468 C.ar    1  UNL1        0.0068
     16 F          15.8860   43.9824    4.6282 F       1  UNL1       -0.2040
     17 S           8.2140   42.0327    9.2475 S.O2    1  UNL1        0.1010
     18 O           8.3569   41.5233   10.6545 O.2     1  UNL1       -0.1477
     19 O           7.5262   43.3687    9.2795 O.2     1  UNL1       -0.1477
     20 C           5.8487   40.7978    8.6164 C.3     1  UNL1        0.1392
     21 N           7.2655   40.9231    8.3027 N.pl3   1  UNL1       -0.1870
     22 C           7.8558   40.1286    7.2539 C.ar    1  UNL1        0.0689
     23 C           7.5978   40.4148    5.9030 C.ar    1  UNL1        0.0158
     24 C           8.1744   39.6466    4.8880 C.ar    1  UNL1       -0.0029
     25 C           9.0167   38.5809    5.2123 C.ar    1  UNL1       -0.0218
     26 C           9.6304   37.7638    4.1335 C.3     1  UNL1        0.0310
     27 C           9.2817   38.2833    6.5509 C.ar    1  UNL1       -0.0029
     28 C           8.7048   39.0525    7.5653 C.ar    1  UNL1        0.0158
@<TRIPOS>BOND
     1    20    21    1
     2    23    24   ar
     3    25    27   ar
     4    26    25    1
     5    28    22   ar
     6     1     5   ar
     7     2     7    1
     8     2     5   ar
     9     6    10    1
    10    11    16    1
    11    11    12   ar
    12    13    14   ar
    13    15    10   ar
    14    21    22    1
    15     3     4   ar
    16     7     6   am
    17    17    21    1
    18    17     1    1
    19    22    23   ar
    20    24    25   ar
    21    27    28   ar
    22     1     3   ar
    23     2     4   ar
    24     6     8    2
    25    10    11   ar
    26    12    13   ar
    27    14    15   ar
    28    17    18    2
    29    17    19    2
    30     7     9    1
@<TRIPOS>MOLECULE
MolPort-007-723-574 ChemDiv-E157-6400 MCULE-4115465868 PubChem-22518102 ZINC000006818369 ZINC06818369
 28 30 0 0 0
SMALL
GASTEIGER

@<TRIPOS>ATOM
      1 C           9.6870   40.8648    6.5085 C.ar    1  UNL1        0.2593
      2 C          12.0356   41.2729    6.6372 C.ar    1  UNL1        0.1896
      3 N          10.3143   40.7163    5.3217 N.ar    1  UNL1       -0.1187
      4 N          11.6243   40.9447    5.3923 N.ar    1  UNL1       -0.1239
      5 S          10.7599   41.2950    7.7337 S.2     1  UNL1       -0.0102
      6 C          14.0539   42.8148    6.7598 C.2     1  UNL1        0.2531
      7 N          13.3916   41.5641    6.9881 N.am    1  UNL1       -0.2591
      8 O          13.4329   43.7655    6.2100 O.2     1  UNL1       -0.2697
      9 H          13.9113   40.8486    7.4208 H       1  UNL1        0.1571
     10 C          15.4665   43.0043    7.1641 C.ar    1  UNL1        0.0811
     11 C          16.1037   42.1618    8.1022 C.ar    1  UNL1        0.1445
     12 C          17.4401   42.3837    8.4499 C.ar    1  UNL1        0.0298
     13 C          18.1543   43.4364    7.8750 C.ar    1  UNL1        0.0023
     14 C          17.5340   44.2742    6.9475 C.ar    1  UNL1        0.0003
     15 C          16.1998   44.0585    6.5956 C.ar    1  UNL1        0.0068
     16 F          15.4498   41.1271    8.6859 F       1  UNL1       -0.2040
     17 S           7.9688   40.6120    6.7371 S.O2    1  UNL1        0.1010
     18 O           7.2379   41.1076    5.5206 O.2     1  UNL1       -0.1477
     19 O           7.6856   39.1466    6.9136 O.2     1  UNL1       -0.1477
     20 C           8.0570   41.1475    9.4247 C.3     1  UNL1        0.1392
     21 N           7.4329   41.4730    8.1495 N.pl3   1  UNL1       -0.1870
     22 C           6.3878   42.4641    8.0781 C.ar    1  UNL1        0.0689
     23 C           6.5146   43.5839    7.2394 C.ar    1  UNL1        0.0158
     24 C           5.4988   44.5409    7.1683 C.ar    1  UNL1       -0.0029
     25 C           4.3425   44.3897    7.9367 C.ar    1  UNL1       -0.0218
     26 C           3.2618   45.4068    7.8613 C.3     1  UNL1        0.0310
     27 C           4.2024   43.2824    8.7762 C.ar    1  UNL1       -0.0029
     28 C           5.2189   42.3255    8.8464 C.ar    1  UNL1        0.0158
@<TRIPOS>BOND
     1    20    21    1
     2    23    24   ar
     3    25    27   ar
     4    26    25    1
     5    28    22   ar
     6     1     5   ar
     7     2     7    1
     8     2     5   ar
     9     6    10    1
    10    11    16    1
    11    11    12   ar
    12    13    14   ar
    13    15    10   ar
    14    21    22    1
    15     3     4   ar
    16     7     6   am
    17    17    21    1
    18    17     1    1
    19    22    23   ar
    20    24    25   ar
    21    27    28   ar
    22     1     3   ar
    23     2     4   ar
    24     6     8    2
    25    10    11   ar
    26    12    13   ar
    27    14    15   ar
    28    17    18    2
    29    17    19    2
    30     7     9    1
@<TRIPOS>MOLECULE
MolPort-007-723-574 ChemDiv-E157-6400 MCULE-4115465868 PubChem-22518102 ZINC000006818369 ZINC06818369
 28 30 0 0 0
SMALL
GASTEIGER

@<TRIPOS>ATOM
      1 C           9.7746   42.0385    8.9595 C.ar    1  UNL1        0.2593
      2 C          12.0344   42.0629    8.1899 C.ar    1  UNL1        0.1896
      3 N           9.9273   41.4534    7.7519 N.ar    1  UNL1       -0.1187
      4 N          11.1872   41.4673    7.3213 N.ar    1  UNL1       -0.1239
      5 S          11.2375   42.6127    9.5658 S.2     1  UNL1       -0.0102
      6 C          14.0446   43.1246    7.0509 C.2     1  UNL1        0.2531
      7 N          13.4410   42.2084    7.9734 N.am    1  UNL1       -0.2591
      8 O          13.3195   43.8853    6.3527 O.2     1  UNL1       -0.2697
      9 H          14.0423   41.6335    8.5000 H       1  UNL1        0.1571
     10 C          15.5178   43.1885    6.9073 C.ar    1  UNL1        0.0811
     11 C          16.3936   42.5397    7.8060 C.ar    1  UNL1        0.1445
     12 C          17.7776   42.6311    7.6258 C.ar    1  UNL1        0.0298
     13 C          18.3044   43.3622    6.5596 C.ar    1  UNL1        0.0023
     14 C          17.4478   44.0067    5.6665 C.ar    1  UNL1        0.0003
     15 C          16.0648   43.9196    5.8402 C.ar    1  UNL1        0.0068
     16 F          15.9272   41.8185    8.8554 F       1  UNL1       -0.2040
     17 S           8.2394   42.1560    9.7946 S.O2    1  UNL1        0.1010
     18 O           8.2264   41.1712   10.9302 O.2     1  UNL1       -0.1477
     19 O           8.0621   43.5421   10.3482 O.2     1  UNL1       -0.1477
     20 C           6.9454   40.5192    8.0158 C.3     1  UNL1        0.1392
     21 N           6.9429   41.8112    8.6885 N.pl3   1  UNL1       -0.1870
     22 C           5.9041   42.7745    8.4191 C.ar    1  UNL1        0.0689
     23 C           6.0897   43.7826    7.4585 C.ar    1  UNL1        0.0158
     24 C           5.0801   44.7123    7.1956 C.ar    1  UNL1       -0.0029
     25 C           3.8713   44.6455    7.8917 C.ar    1  UNL1       -0.0218
     26 C           2.7972   45.6336    7.6125 C.3     1  UNL1        0.0310
     27 C           3.6724   43.6497    8.8506 C.ar    1  UNL1       -0.0029
     28 C           4.6827   42.7199    9.1125 C.ar    1  UNL1        0.0158
@<TRIPOS>BOND
     1    20    21    1
     2    23    24   ar
     3    25    27   ar
     4    26    25    1
     5    28    22   ar
     6     1     5   ar
     7     2     7    1
     8     2     5   ar
     9     6    10    1
    10    11    16    1
    11    11    12   ar
    12    13    14   ar
    13    15    10   ar
    14    21    22    1
    15     3     4   ar
    16     7     6   am
    17    17    21    1
    18    17     1    1
    19    22    23   ar
    20    24    25   ar
    21    27    28   ar
    22     1     3   ar
    23     2     4   ar
    24     6     8    2
    25    10    11   ar
    26    12    13   ar
    27    14    15   ar
    28    17    18    2
    29    17    19    2
    30     7     9    1
@<TRIPOS>MOLECULE
MolPort-007-723-574 ChemDiv-E157-6400 MCULE-4115465868 PubChem-22518102 ZINC000006818369 ZINC06818369
 28 30 0 0 0
SMALL
GASTEIGER

@<TRIPOS>ATOM
      1 C           9.3321   41.3456    6.2664 C.ar    1  UNL1        0.2593
      2 C          11.6173   41.9085    5.8659 C.ar    1  UNL1        0.1896
      3 N           9.8091   40.8278    5.1139 N.ar    1  UNL1       -0.1187
      4 N          11.0834   41.1420    4.8890 N.ar    1  UNL1       -0.1239
      5 S          10.5037   42.2389    7.0829 S.2     1  UNL1       -0.0102
      6 C          13.8823   42.2550    6.9685 C.2     1  UNL1        0.2531
      7 N          12.9672   42.3823    5.8724 N.am    1  UNL1       -0.2591
      8 O          13.5152   41.6861    8.0331 O.2     1  UNL1       -0.2697
      9 H          13.2936   42.8316    5.0595 H       1  UNL1        0.1571
     10 C          15.2612   42.7868    6.8645 C.ar    1  UNL1        0.0811
     11 C          15.6610   43.6517    5.8216 C.ar    1  UNL1        0.1445
     12 C          16.9757   44.1261    5.7691 C.ar    1  UNL1        0.0298
     13 C          17.9018   43.7503    6.7437 C.ar    1  UNL1        0.0023
     14 C          17.5169   42.8964    7.7778 C.ar    1  UNL1        0.0003
     15 C          16.2057   42.4188    7.8366 C.ar    1  UNL1        0.0068
     16 F          14.7960   44.0435    4.8536 F       1  UNL1       -0.2040
     17 S           7.6982   41.0896    6.8432 S.O2    1  UNL1        0.1010
     18 O           6.8342   42.2289    6.3796 O.2     1  UNL1       -0.1477
     19 O           7.1532   39.8048    6.2851 O.2     1  UNL1       -0.1477
     20 C           6.4399   41.2526    9.2739 C.3     1  UNL1        0.1392
     21 N           7.6965   41.0054    8.5800 N.pl3   1  UNL1       -0.1870
     22 C           8.8997   40.7235    9.3233 C.ar    1  UNL1        0.0689
     23 C           9.2727   41.5216   10.4176 C.ar    1  UNL1        0.0158
     24 C          10.4366   41.2440   11.1394 C.ar    1  UNL1       -0.0029
     25 C          11.2431   40.1638   10.7746 C.ar    1  UNL1       -0.0218
     26 C          12.4808   39.8679   11.5418 C.3     1  UNL1        0.0310
     27 C          10.8861   39.3620    9.6882 C.ar    1  UNL1       -0.0029
     28 C           9.7215   39.6402    8.9671 C.ar    1  UNL1        0.0158
@<TRIPOS>BOND
     1    20    21    1
     2    23    24   ar
     3    25    27   ar
     4    26    25    1
     5    28    22   ar
     6     1     5   ar
     7     2     7    1
     8     2     5   ar
     9     6    10    1
    10    11    16    1
    11    11    12   ar
    12    13    14   ar
    13    15    10   ar
    14    21    22    1
    15     3     4   ar
    16     7     6   am
    17    17    21    1
    18    17     1    1
    19    22    23   ar
    20    24    25   ar
    21    27    28   ar
    22     1     3   ar
    23     2     4   ar
    24     6     8    2
    25    10    11   ar
    26    12    13   ar
    27    14    15   ar
    28    17    18    2
    29    17    19    2
    30     7     9    1
@<TRIPOS>MOLECULE
MolPort-007-723-574 ChemDiv-E157-6400 MCULE-4115465868 PubChem-22518102 ZINC000006818369 ZINC06818369
 28 30 0 0 0
SMALL
GASTEIGER

@<TRIPOS>ATOM
      1 C           8.9948   41.5268    6.4560 C.ar    1  UNL1        0.2593
      2 C          11.3753   41.5143    6.6357 C.ar    1  UNL1        0.1896
      3 N           9.6114   41.2698    5.2822 N.ar    1  UNL1       -0.1187
      4 N          10.9393   41.2636    5.3811 N.ar    1  UNL1       -0.1239
      5 S          10.1003   41.7612    7.7050 S.2     1  UNL1       -0.0102
      6 C          13.6319   42.6745    6.8022 C.2     1  UNL1        0.2531
      7 N          12.7536   41.5619    7.0161 N.am    1  UNL1       -0.2591
      8 O          13.2013   43.7181    6.2388 O.2     1  UNL1       -0.2697
      9 H          13.1287   40.7674    7.4602 H       1  UNL1        0.1571
     10 C          15.0467   42.6121    7.2374 C.ar    1  UNL1        0.0811
     11 C          15.4772   41.7753    8.2909 C.ar    1  UNL1        0.1445
     12 C          16.8253   41.7534    8.6631 C.ar    1  UNL1        0.0298
     13 C          17.7546   42.5560    7.9990 C.ar    1  UNL1        0.0023
     14 C          17.3395   43.3860    6.9571 C.ar    1  UNL1        0.0003
     15 C          15.9949   43.4129    6.5801 C.ar    1  UNL1        0.0068
     16 F          14.6104   40.9788    8.9640 F       1  UNL1       -0.2040
     17 S           7.2545   41.5809    6.6473 S.O2    1  UNL1        0.1010
     18 O           6.6341   41.9978    5.3432 O.2     1  UNL1       -0.1477
     19 O           6.7375   40.2200    7.0210 O.2     1  UNL1       -0.1477
     20 C           7.4639   44.0295    7.8633 C.3     1  UNL1        0.1392
     21 N           6.8377   42.7148    7.8979 N.pl3   1  UNL1       -0.1870
     22 C           5.9199   42.3691    8.9551 C.ar    1  UNL1        0.0689
     23 C           6.3499   41.6248   10.0662 C.ar    1  UNL1        0.0158
     24 C           5.4600   41.2947   11.0918 C.ar    1  UNL1       -0.0029
     25 C           4.1271   41.7050   11.0182 C.ar    1  UNL1       -0.0218
     26 C           3.1804   41.3545   12.1085 C.3     1  UNL1        0.0310
     27 C           3.6843   42.4445    9.9192 C.ar    1  UNL1       -0.0029
     28 C           4.5753   42.7745    8.8941 C.ar    1  UNL1        0.0158
@<TRIPOS>BOND
     1    20    21    1
     2    23    24   ar
     3    25    27   ar
     4    26    25    1
     5    28    22   ar
     6     1     5   ar
     7     2     7    1
     8     2     5   ar
     9     6    10    1
    10    11    16    1
    11    11    12   ar
    12    13    14   ar
    13    15    10   ar
    14    21    22    1
    15     3     4   ar
    16     7     6   am
    17    17    21    1
    18    17     1    1
    19    22    23   ar
    20    24    25   ar
    21    27    28   ar
    22     1     3   ar
    23     2     4   ar
    24     6     8    2
    25    10    11   ar
    26    12    13   ar
    27    14    15   ar
    28    17    18    2
    29    17    19    2
    30     7     9    1
@<TRIPOS>MOLECULE
MolPort-007-723-574 ChemDiv-E157-6400 MCULE-4115465868 PubChem-22518102 ZINC000006818369 ZINC06818369
 28 30 0 0 0
SMALL
GASTEIGER

@<TRIPOS>ATOM
      1 C           9.4174   41.2991    6.4599 C.ar    1  UNL1        0.2593
      2 C          11.7982   41.4582    6.5383 C.ar    1  UNL1        0.1896
      3 N          10.0047   41.0131    5.2779 N.ar    1  UNL1       -0.1187
      4 N          11.3326   41.1025    5.3202 N.ar    1  UNL1       -0.1239
      5 S          10.5512   41.6834    7.6449 S.2     1  UNL1       -0.0102
      6 C          13.9354   42.8289    6.6767 C.2     1  UNL1        0.2531
      7 N          13.1834   41.6217    6.8561 N.am    1  UNL1       -0.2591
      8 O          13.3749   43.8564    6.2056 O.2     1  UNL1       -0.2697
      9 H          13.6579   40.8433    7.2277 H       1  UNL1        0.1571
     10 C          15.3707   42.8836    7.0399 C.ar    1  UNL1        0.0811
     11 C          16.2917   43.7102    6.3588 C.ar    1  UNL1        0.1445
     12 C          17.6369   43.7252    6.7414 C.ar    1  UNL1        0.0298
     13 C          18.0803   42.9258    7.7964 C.ar    1  UNL1        0.0023
     14 C          17.1785   42.1058    8.4755 C.ar    1  UNL1        0.0003
     15 C          15.8337   42.0858    8.0990 C.ar    1  UNL1        0.0068
     16 F          15.9065   44.5034    5.3286 F       1  UNL1       -0.2040
     17 S           7.6863   41.2474    6.7219 S.O2    1  UNL1        0.1010
     18 O           6.9887   41.5783    5.4322 O.2     1  UNL1       -0.1477
     19 O           7.2753   39.8696    7.1599 O.2     1  UNL1       -0.1477
     20 C           6.5577   43.6095    7.5372 C.3     1  UNL1        0.1392
     21 N           7.2455   42.3944    7.9522 N.pl3   1  UNL1       -0.1870
     22 C           7.5656   42.1726    9.3407 C.ar    1  UNL1        0.0689
     23 C           8.7910   42.6052    9.8743 C.ar    1  UNL1        0.0158
     24 C           9.0974   42.3933   11.2211 C.ar    1  UNL1       -0.0029
     25 C           8.1810   41.7447   12.0517 C.ar    1  UNL1       -0.0218
     26 C           8.5060   41.5193   13.4840 C.3     1  UNL1        0.0310
     27 C           6.9590   41.3077   11.5354 C.ar    1  UNL1       -0.0029
     28 C           6.6533   41.5204   10.1882 C.ar    1  UNL1        0.0158
@<TRIPOS>BOND
     1    20    21    1
     2    23    24   ar
     3    25    27   ar
     4    26    25    1
     5    28    22   ar
     6     1     5   ar
     7     2     7    1
     8     2     5   ar
     9     6    10    1
    10    11    16    1
    11    11    12   ar
    12    13    14   ar
    13    15    10   ar
    14    21    22    1
    15     3     4   ar
    16     7     6   am
    17    17    21    1
    18    17     1    1
    19    22    23   ar
    20    24    25   ar
    21    27    28   ar
    22     1     3   ar
    23     2     4   ar
    24     6     8    2
    25    10    11   ar
    26    12    13   ar
    27    14    15   ar
    28    17    18    2
    29    17    19    2
    30     7     9    1
@<TRIPOS>MOLECULE
MolPort-007-723-574 ChemDiv-E157-6400 MCULE-4115465868 PubChem-22518102 ZINC000006818369 ZINC06818369
 28 30 0 0 0
SMALL
GASTEIGER

@<TRIPOS>ATOM
      1 C          11.4668   42.5391    8.3762 C.ar    1  UNL1        0.2593
      2 C           9.3327   42.6668    9.4385 C.ar    1  UNL1        0.1896
      3 N          11.4944   43.2331    9.5344 N.ar    1  UNL1       -0.1187
      4 N          10.3043   43.3058   10.1273 N.ar    1  UNL1       -0.1239
      5 S           9.9219   41.9655    8.0274 S.2     1  UNL1       -0.0102
      6 C           6.9935   41.6754    9.3320 C.2     1  UNL1        0.2531
      7 N           7.9663   42.5891    9.8552 N.am    1  UNL1       -0.2591
      8 O           7.3207   40.8538    8.4321 O.2     1  UNL1       -0.2697
      9 H           7.6705   43.2128   10.5572 H       1  UNL1        0.1571
     10 C           5.6013   41.6852    9.8386 C.ar    1  UNL1        0.0811
     11 C           5.2582   41.1876   11.1154 C.ar    1  UNL1        0.1445
     12 C           3.9281   41.2201   11.5466 C.ar    1  UNL1        0.0298
     13 C           2.9306   41.7428   10.7216 C.ar    1  UNL1        0.0023
     14 C           3.2592   42.2366    9.4587 C.ar    1  UNL1        0.0003
     15 C           4.5854   42.2074    9.0216 C.ar    1  UNL1        0.0068
     16 F           6.1933   40.6711   11.9507 F       1  UNL1       -0.2040
     17 S          12.8794   42.2551    7.3802 S.O2    1  UNL1        0.1010
     18 O          12.4541   41.5531    6.1210 O.2     1  UNL1       -0.1477
     19 O          13.5213   43.5645    7.0163 O.2     1  UNL1       -0.1477
     20 C          15.4197   41.6970    8.2482 C.3     1  UNL1        0.1392
     21 N          14.0243   41.2792    8.2521 N.pl3   1  UNL1       -0.1870
     22 C          13.6219   40.0786    8.9422 C.ar    1  UNL1        0.0689
     23 C          12.8764   39.0863    8.2841 C.ar    1  UNL1        0.0158
     24 C          12.4912   37.9216    8.9533 C.ar    1  UNL1       -0.0029
     25 C          12.8469   37.7351   10.2909 C.ar    1  UNL1       -0.0218
     26 C          12.4380   36.4968   11.0030 C.3     1  UNL1        0.0310
     27 C          13.5869   38.7133   10.9590 C.ar    1  UNL1       -0.0029
     28 C          13.9719   39.8778   10.2886 C.ar    1  UNL1        0.0158
@<TRIPOS>BOND
     1    20    21    1
     2    23    24   ar
     3    25    27   ar
     4    26    25    1
     5    28    22   ar
     6     1     5   ar
     7     2     7    1
     8     2     5   ar
     9     6    10    1
    10    11    16    1
    11    11    12   ar
    12    13    14   ar
    13    15    10   ar
    14    21    22    1
    15     3     4   ar
    16     7     6   am
    17    17    21    1
    18    17     1    1
    19    22    23   ar
    20    24    25   ar
    21    27    28   ar
    22     1     3   ar
    23     2     4   ar
    24     6     8    2
    25    10    11   ar
    26    12    13   ar
    27    14    15   ar
    28    17    18    2
    29    17    19    2
    30     7     9    1
@<TRIPOS>MOLECULE
MolPort-007-723-574 ChemDiv-E157-6400 MCULE-4115465868 PubChem-22518102 ZINC000006818369 ZINC06818369
 28 30 0 0 0
SMALL
GASTEIGER

@<TRIPOS>ATOM
      1 C          10.7361   41.8238   10.3265 C.ar    1  UNL1        0.2593
      2 C          12.5685   40.3041   10.1475 C.ar    1  UNL1        0.1896
      3 N          10.7197   40.8630   11.2756 N.ar    1  UNL1       -0.1187
      4 N          11.7409   40.0143   11.1760 N.ar    1  UNL1       -0.1239
      5 S          12.0571   41.6607    9.2942 S.2     1  UNL1       -0.0102
      6 C          14.5997   38.9062   10.7690 C.2     1  UNL1        0.2531
      7 N          13.7420   39.5539    9.8205 N.am    1  UNL1       -0.2591
      8 O          14.3399   38.9731   12.0019 O.2     1  UNL1       -0.2697
      9 H          13.9793   39.4764    8.8681 H       1  UNL1        0.1571
     10 C          15.7937   38.1554   10.3155 C.ar    1  UNL1        0.0811
     11 C          17.1062   38.5341   10.6753 C.ar    1  UNL1        0.1445
     12 C          18.2002   37.7908   10.2204 C.ar    1  UNL1        0.0298
     13 C          18.0056   36.6716    9.4091 C.ar    1  UNL1        0.0023
     14 C          16.7132   36.2893    9.0481 C.ar    1  UNL1        0.0003
     15 C          15.6161   37.0268    9.4988 C.ar    1  UNL1        0.0068
     16 F          17.3432   39.6134   11.4612 F       1  UNL1       -0.2040
     17 S           9.5366   43.0950   10.2106 S.O2    1  UNL1        0.1010
     18 O           8.9237   43.3110   11.5660 O.2     1  UNL1       -0.1477
     19 O          10.1864   44.3729    9.7592 O.2     1  UNL1       -0.1477
     20 C           8.7123   42.4380    7.6794 C.3     1  UNL1        0.1392
     21 N           8.3103   42.6406    9.0647 N.pl3   1  UNL1       -0.1870
     22 C           6.9307   42.4884    9.4560 C.ar    1  UNL1        0.0689
     23 C           5.9370   43.3314    8.9312 C.ar    1  UNL1        0.0158
     24 C           4.6001   43.1794    9.3082 C.ar    1  UNL1       -0.0029
     25 C           4.2402   42.1815   10.2164 C.ar    1  UNL1       -0.0218
     26 C           2.8187   42.0191   10.6175 C.3     1  UNL1        0.0310
     27 C           5.2170   41.3363   10.7478 C.ar    1  UNL1       -0.0029
     28 C           6.5539   41.4890   10.3698 C.ar    1  UNL1        0.0158
@<TRIPOS>BOND
     1    20    21    1
     2    23    24   ar
     3    25    27   ar
     4    26    25    1
     5    28    22   ar
     6     1     5   ar
     7     2     7    1
     8     2     5   ar
     9     6    10    1
    10    11    16    1
    11    11    12   ar
    12    13    14   ar
    13    15    10   ar
    14    21    22    1
    15     3     4   ar
    16     7     6   am
    17    17    21    1
    18    17     1    1
    19    22    23   ar
    20    24    25   ar
    21    27    28   ar
    22     1     3   ar
    23     2     4   ar
    24     6     8    2
    25    10    11   ar
    26    12    13   ar
    27    14    15   ar
    28    17    18    2
    29    17    19    2
    30     7     9    1
@<TRIPOS>MOLECULE
MolPort-007-723-574 ChemDiv-E157-6400 MCULE-4115465868 PubChem-22518102 ZINC000006818369 ZINC06818369
 28 30 0 0 0
SMALL
GASTEIGER

@<TRIPOS>ATOM
      1 C          10.2126   40.0537    6.5895 C.ar    1  UNL1        0.2593
      2 C          12.3303   40.8368    7.3648 C.ar    1  UNL1        0.1896
      3 N          10.3211   40.0366    7.9355 N.ar    1  UNL1       -0.1187
      4 N          11.5023   40.4723    8.3690 N.ar    1  UNL1       -0.1239
      5 S          11.6155   40.6293    5.8561 S.2     1  UNL1       -0.0102
      6 C          14.1881   42.5181    6.9317 C.2     1  UNL1        0.2531
      7 N          13.6550   41.3424    7.5550 N.am    1  UNL1       -0.2591
      8 O          13.4700   43.1955    6.1459 O.2     1  UNL1       -0.2697
      9 H          14.2477   40.8432    8.1622 H       1  UNL1        0.1571
     10 C          15.5798   42.9487    7.2011 C.ar    1  UNL1        0.0811
     11 C          16.3941   42.3140    8.1653 C.ar    1  UNL1        0.1445
     12 C          17.7022   42.7594    8.3814 C.ar    1  UNL1        0.0298
     13 C          18.2134   43.8320    7.6486 C.ar    1  UNL1        0.0023
     14 C          17.4172   44.4657    6.6941 C.ar    1  UNL1        0.0003
     15 C          16.1101   44.0262    6.4729 C.ar    1  UNL1        0.0068
     16 F          15.9402   41.2687    8.9003 F       1  UNL1       -0.2040
     17 S           8.7719   39.5588    5.7249 S.O2    1  UNL1        0.1010
     18 O           8.8964   39.9831    4.2882 O.2     1  UNL1       -0.1477
     19 O           8.6284   38.0637    5.7817 O.2     1  UNL1       -0.1477
     20 C           6.0870   39.6333    6.2761 C.3     1  UNL1        0.1392
     21 N           7.3727   40.2960    6.4476 N.pl3   1  UNL1       -0.1870
     22 C           7.4649   41.5367    7.1767 C.ar    1  UNL1        0.0689
     23 C           7.6988   41.5413    8.5619 C.ar    1  UNL1        0.0158
     24 C           7.7924   42.7448    9.2659 C.ar    1  UNL1       -0.0029
     25 C           7.6523   43.9600    8.5923 C.ar    1  UNL1       -0.0218
     26 C           7.7519   45.2401    9.3402 C.3     1  UNL1        0.0310
     27 C           7.4182   43.9717    7.2154 C.ar    1  UNL1       -0.0029
     28 C           7.3251   42.7674    6.5121 C.ar    1  UNL1        0.0158
@<TRIPOS>BOND
     1    20    21    1
     2    23    24   ar
     3    25    27   ar
     4    26    25    1
     5    28    22   ar
     6     1     5   ar
     7     2     7    1
     8     2     5   ar
     9     6    10    1
    10    11    16    1
    11    11    12   ar
    12    13    14   ar
    13    15    10   ar
    14    21    22    1
    15     3     4   ar
    16     7     6   am
    17    17    21    1
    18    17     1    1
    19    22    23   ar
    20    24    25   ar
    21    27    28   ar
    22     1     3   ar
    23     2     4   ar
    24     6     8    2
    25    10    11   ar
    26    12    13   ar
    27    14    15   ar
    28    17    18    2
    29    17    19    2
    30     7     9    1
