@<TRIPOS>MOLECULE
MolPort-051-610-737 CSSS09312299681 MCULE-6652970942
 22 23 0 0 0
SMALL
GASTEIGER

@<TRIPOS>ATOM
      1 C          13.9157   41.7331    7.0292 C.3     1  UNL1        0.0807
      2 C          15.6368   43.5995    6.8504 C.ar    1  UNL1        0.0679
      3 C          16.8573   44.1556    7.2666 C.ar    1  UNL1        0.0035
      4 C          17.6389   43.5226    8.2349 C.ar    1  UNL1       -0.0001
      5 C          17.2083   42.3247    8.8046 C.ar    1  UNL1       -0.0003
      6 C          15.9983   41.7574    8.4029 C.ar    1  UNL1       -0.0039
      7 C          15.2094   42.3784    7.4246 C.ar    1  UNL1       -0.0117
      8 F          15.0943   45.6765    5.8522 F       1  UNL1       -0.1659
      9 F          15.0957   43.8302    4.5581 F       1  UNL1       -0.1659
     10 F          13.4543   44.1567    6.0563 F       1  UNL1       -0.1659
     11 C          14.8083   44.3246    5.8174 C.3     1  UNL1        0.4183
     12 C          13.1204   41.3446    8.2306 C.ar    1  UNL1        0.1167
     13 C          11.5003   40.8091    9.9056 C.ar    1  UNL1        0.1878
     14 S          11.4542   41.5396    8.3916 S.2     1  UNL1       -0.0344
     15 N          12.7536   40.4333   10.2438 N.ar    1  UNL1       -0.1256
     16 N          13.6542   40.7281    9.3081 N.ar    1  UNL1       -0.1437
     17 C           9.5817   41.6492   11.3383 C.2     1  UNL1        0.2442
     18 N          10.3478   40.6056   10.7282 N.am    1  UNL1       -0.2617
     19 O           9.8987   42.8595   11.1917 O.2     1  UNL1       -0.2733
     20 H          10.0598   39.6775   10.8866 H       1  UNL1        0.1568
     21 C           8.4139   41.2968   12.1883 C.3     1  UNL1        0.1798
     22 CL          6.9081   41.5414   11.2722 Cl      1  UNL1       -0.1033
@<TRIPOS>BOND
     1    11     8    1
     2    11     2    1
     3    11     9    1
     4    11    10    1
     5     3     4   ar
     6     5     6   ar
     7     7     2   ar
     8     1     7    1
     9     1    12    1
    10    12    14   ar
    11    13    14   ar
    12    13    18    1
    13    21    17    1
    14    21    22    1
    15    15    16   ar
    16    18    17   am
    17     2     3   ar
    18     4     5   ar
    19     6     7   ar
    20    12    16   ar
    21    13    15   ar
    22    17    19    2
    23    18    20    1
@<TRIPOS>MOLECULE
MolPort-051-610-737 CSSS09312299681 MCULE-6652970942
 22 23 0 0 0
SMALL
GASTEIGER

@<TRIPOS>ATOM
      1 C          13.7748   42.3198    6.9209 C.3     1  UNL1        0.0807
      2 C          15.9389   43.6486    6.7516 C.ar    1  UNL1        0.0679
      3 C          17.2644   43.8489    7.1698 C.ar    1  UNL1        0.0035
      4 C          17.8439   43.0208    8.1329 C.ar    1  UNL1       -0.0001
      5 C          17.1034   41.9816    8.6955 C.ar    1  UNL1       -0.0003
      6 C          15.7848   41.7675    8.2919 C.ar    1  UNL1       -0.0039
      7 C          15.1951   42.5861    7.3187 C.ar    1  UNL1       -0.0117
      8 F          14.0358   44.8809    6.0705 F       1  UNL1       -0.1659
      9 F          16.0779   45.7464    5.6652 F       1  UNL1       -0.1659
     10 F          15.3356   43.9973    4.4672 F       1  UNL1       -0.1659
     11 C          15.3394   44.5785    5.7245 C.3     1  UNL1        0.4183
     12 C          13.3006   41.0141    7.4659 C.ar    1  UNL1        0.1167
     13 C          12.8049   39.0110    8.6737 C.ar    1  UNL1        0.1878
     14 S          13.9466   40.2376    8.8149 S.2     1  UNL1       -0.0344
     15 N          11.9702   39.2195    7.6316 N.ar    1  UNL1       -0.1256
     16 N          12.2446   40.3377    6.9624 N.ar    1  UNL1       -0.1437
     17 C          11.5535   37.0987    9.7767 C.2     1  UNL1        0.2442
     18 N          12.7264   37.8890    9.5578 N.am    1  UNL1       -0.2617
     19 O          10.4714   37.3640    9.1889 O.2     1  UNL1       -0.2733
     20 H          13.5406   37.6419   10.0530 H       1  UNL1        0.1568
     21 C          11.6041   35.9680   10.7409 C.3     1  UNL1        0.1798
     22 CL         12.9661   34.8958   10.3389 Cl      1  UNL1       -0.1033
@<TRIPOS>BOND
     1    11     8    1
     2    11     2    1
     3    11     9    1
     4    11    10    1
     5     3     4   ar
     6     5     6   ar
     7     7     2   ar
     8     1     7    1
     9     1    12    1
    10    12    14   ar
    11    13    14   ar
    12    13    18    1
    13    21    17    1
    14    21    22    1
    15    15    16   ar
    16    18    17   am
    17     2     3   ar
    18     4     5   ar
    19     6     7   ar
    20    12    16   ar
    21    13    15   ar
    22    17    19    2
    23    18    20    1
@<TRIPOS>MOLECULE
MolPort-051-610-737 CSSS09312299681 MCULE-6652970942
 22 23 0 0 0
SMALL
GASTEIGER

@<TRIPOS>ATOM
      1 C          13.6893   42.5124    6.5047 C.3     1  UNL1        0.0807
      2 C          16.0524   42.8844    7.3739 C.ar    1  UNL1        0.0679
      3 C          17.0898   42.5051    8.2409 C.ar    1  UNL1        0.0035
      4 C          16.9310   41.4330    9.1210 C.ar    1  UNL1       -0.0001
      5 C          15.7289   40.7265    9.1493 C.ar    1  UNL1       -0.0003
      6 C          14.6871   41.0893    8.2947 C.ar    1  UNL1       -0.0039
      7 C          14.8380   42.1577    7.3998 C.ar    1  UNL1       -0.0117
      8 F          15.2497   44.9921    6.6542 F       1  UNL1       -0.1659
      9 F          17.4780   44.6524    6.7086 F       1  UNL1       -0.1659
     10 F          16.2249   43.6692    5.1247 F       1  UNL1       -0.1659
     11 C          16.2532   44.0632    6.4523 C.3     1  UNL1        0.4183
     12 C          12.3841   42.2919    7.1935 C.ar    1  UNL1        0.1167
     13 C          10.2189   41.6504    7.9792 C.ar    1  UNL1        0.1878
     14 S          11.1075   41.3804    6.5773 S.2     1  UNL1       -0.0344
     15 N          10.9017   42.4041    8.8692 N.ar    1  UNL1       -0.1256
     16 N          12.1092   42.7570    8.4321 N.ar    1  UNL1       -0.1437
     17 C           7.6891   41.8208    7.8765 C.2     1  UNL1        0.2442
     18 N           8.9028   41.1353    8.2008 N.am    1  UNL1       -0.2617
     19 O           7.7089   42.9730    7.3677 O.2     1  UNL1       -0.2733
     20 H           8.8262   40.2417    8.6069 H       1  UNL1        0.1568
     21 C           6.3834   41.1769    8.1784 C.3     1  UNL1        0.1798
     22 CL          5.2925   42.3584    8.9404 Cl      1  UNL1       -0.1033
@<TRIPOS>BOND
     1    11     8    1
     2    11     2    1
     3    11     9    1
     4    11    10    1
     5     3     4   ar
     6     5     6   ar
     7     7     2   ar
     8     1     7    1
     9     1    12    1
    10    12    14   ar
    11    13    14   ar
    12    13    18    1
    13    21    17    1
    14    21    22    1
    15    15    16   ar
    16    18    17   am
    17     2     3   ar
    18     4     5   ar
    19     6     7   ar
    20    12    16   ar
    21    13    15   ar
    22    17    19    2
    23    18    20    1
@<TRIPOS>MOLECULE
MolPort-051-610-737 CSSS09312299681 MCULE-6652970942
 22 23 0 0 0
SMALL
GASTEIGER

@<TRIPOS>ATOM
      1 C          12.8018   42.0855    6.5562 C.3     1  UNL1        0.0807
      2 C          15.1391   43.0600    6.8108 C.ar    1  UNL1        0.0679
      3 C          16.3901   43.0371    7.4483 C.ar    1  UNL1        0.0035
      4 C          16.6672   42.1020    8.4473 C.ar    1  UNL1       -0.0001
      5 C          15.6941   41.1778    8.8265 C.ar    1  UNL1       -0.0003
      6 C          14.4453   41.1857    8.2037 C.ar    1  UNL1       -0.0039
      7 C          14.1585   42.1133    7.1925 C.ar    1  UNL1       -0.0117
      8 F          13.5393   44.4768    5.7920 F       1  UNL1       -0.1659
      9 F          15.6636   45.2103    5.9730 F       1  UNL1       -0.1659
     10 F          15.1459   43.6082    4.4862 F       1  UNL1       -0.1659
     11 C          14.8687   44.1005    5.7508 C.3     1  UNL1        0.4183
     12 C          11.7710   41.5841    7.5116 C.ar    1  UNL1        0.1167
     13 C          10.1143   41.1904    9.1902 C.ar    1  UNL1        0.1878
     14 S          11.1571   42.4558    8.8167 S.2     1  UNL1       -0.0344
     15 N          10.2472   40.1590    8.3271 N.ar    1  UNL1       -0.1256
     16 N          11.1670   40.3813    7.3901 N.ar    1  UNL1       -0.1437
     17 C           9.5625   41.1410   11.6665 C.2     1  UNL1        0.2442
     18 N           9.1942   41.2120   10.2854 N.am    1  UNL1       -0.2617
     19 O          10.7690   41.0373   12.0134 O.2     1  UNL1       -0.2733
     20 H           8.2354   41.2810   10.0730 H       1  UNL1        0.1568
     21 C           8.5007   41.1539   12.7072 C.3     1  UNL1        0.1798
     22 CL          9.2408   41.0531   14.3223 Cl      1  UNL1       -0.1033
@<TRIPOS>BOND
     1    11     8    1
     2    11     2    1
     3    11     9    1
     4    11    10    1
     5     3     4   ar
     6     5     6   ar
     7     7     2   ar
     8     1     7    1
     9     1    12    1
    10    12    14   ar
    11    13    14   ar
    12    13    18    1
    13    21    17    1
    14    21    22    1
    15    15    16   ar
    16    18    17   am
    17     2     3   ar
    18     4     5   ar
    19     6     7   ar
    20    12    16   ar
    21    13    15   ar
    22    17    19    2
    23    18    20    1
@<TRIPOS>MOLECULE
MolPort-051-610-737 CSSS09312299681 MCULE-6652970942
 22 23 0 0 0
SMALL
GASTEIGER

@<TRIPOS>ATOM
      1 C          12.8974   41.9448    6.4979 C.3     1  UNL1        0.0807
      2 C          15.1392   43.1232    6.7498 C.ar    1  UNL1        0.0679
      3 C          16.3889   43.2101    7.3843 C.ar    1  UNL1        0.0035
      4 C          16.7509   42.3008    8.3799 C.ar    1  UNL1       -0.0001
      5 C          15.8650   41.2925    8.7587 C.ar    1  UNL1       -0.0003
      6 C          14.6189   41.1907    8.1388 C.ar    1  UNL1       -0.0039
      7 C          14.2479   42.0918    7.1311 C.ar    1  UNL1       -0.0117
      8 F          15.1551   43.6758    4.4479 F       1  UNL1       -0.1659
      9 F          13.4077   44.3504    5.7029 F       1  UNL1       -0.1659
     10 F          15.4079   45.3482    5.9243 F       1  UNL1       -0.1659
     11 C          14.7744   44.1383    5.6936 C.3     1  UNL1        0.4183
     12 C          11.8168   41.9682    7.5266 C.ar    1  UNL1        0.1167
     13 C           9.9339   41.6546    8.9666 C.ar    1  UNL1        0.1878
     14 S          10.4314   41.0091    7.4956 S.2     1  UNL1       -0.0344
     15 N          10.8179   42.5591    9.4427 N.ar    1  UNL1       -0.1256
     16 N          11.8683   42.7296    8.6419 N.ar    1  UNL1       -0.1437
     17 C           7.4173   41.7458    9.2793 C.2     1  UNL1        0.2442
     18 N           8.7241   41.2816    9.6328 N.am    1  UNL1       -0.2617
     19 O           7.2497   42.5552    8.3288 O.2     1  UNL1       -0.2733
     20 H           8.7959   40.6585   10.3917 H       1  UNL1        0.1568
     21 C           6.2425   41.2927   10.0701 C.3     1  UNL1        0.1798
     22 CL          4.8277   41.1275    9.0035 Cl      1  UNL1       -0.1033
@<TRIPOS>BOND
     1    11     8    1
     2    11     2    1
     3    11     9    1
     4    11    10    1
     5     3     4   ar
     6     5     6   ar
     7     7     2   ar
     8     1     7    1
     9     1    12    1
    10    12    14   ar
    11    13    14   ar
    12    13    18    1
    13    21    17    1
    14    21    22    1
    15    15    16   ar
    16    18    17   am
    17     2     3   ar
    18     4     5   ar
    19     6     7   ar
    20    12    16   ar
    21    13    15   ar
    22    17    19    2
    23    18    20    1
@<TRIPOS>MOLECULE
MolPort-051-610-737 CSSS09312299681 MCULE-6652970942
 22 23 0 0 0
SMALL
GASTEIGER

@<TRIPOS>ATOM
      1 C          14.2118   41.3558    7.6479 C.3     1  UNL1        0.0807
      2 C          16.0919   43.0536    7.4021 C.ar    1  UNL1        0.0679
      3 C          16.5717   44.2446    6.8336 C.ar    1  UNL1        0.0035
      4 C          15.7788   44.9907    5.9597 C.ar    1  UNL1       -0.0001
      5 C          14.4942   44.5533    5.6382 C.ar    1  UNL1       -0.0003
      6 C          14.0007   43.3722    6.1939 C.ar    1  UNL1       -0.0039
      7 C          14.7837   42.6195    7.0802 C.ar    1  UNL1       -0.0117
      8 F          16.2995   41.1709    8.8223 F       1  UNL1       -0.1659
      9 F          18.0999   41.8225    7.6318 F       1  UNL1       -0.1659
     10 F          17.4120   43.0358    9.3924 F       1  UNL1       -0.1659
     11 C          16.9869   42.2621    8.3251 C.3     1  UNL1        0.4183
     12 C          12.7827   41.1882    7.2525 C.ar    1  UNL1        0.1167
     13 C          10.4285   40.8283    7.0398 C.ar    1  UNL1        0.1878
     14 S          11.5708   40.5687    8.2464 S.2     1  UNL1       -0.0344
     15 N          10.9808   41.3768    5.9351 N.ar    1  UNL1       -0.1256
     16 N          12.2912   41.5808    6.0565 N.ar    1  UNL1       -0.1437
     17 C           8.1639   40.1878    6.0909 C.2     1  UNL1        0.2442
     18 N           9.0398   40.5123    7.1751 N.am    1  UNL1       -0.2617
     19 O           8.5786   40.1739    4.9015 O.2     1  UNL1       -0.2733
     20 H           8.6580   40.5185    8.0825 H       1  UNL1        0.1568
     21 C           6.7327   39.8974    6.3699 C.3     1  UNL1        0.1798
     22 CL          6.1677   40.9053    7.7232 Cl      1  UNL1       -0.1033
@<TRIPOS>BOND
     1    11     8    1
     2    11     2    1
     3    11     9    1
     4    11    10    1
     5     3     4   ar
     6     5     6   ar
     7     7     2   ar
     8     1     7    1
     9     1    12    1
    10    12    14   ar
    11    13    14   ar
    12    13    18    1
    13    21    17    1
    14    21    22    1
    15    15    16   ar
    16    18    17   am
    17     2     3   ar
    18     4     5   ar
    19     6     7   ar
    20    12    16   ar
    21    13    15   ar
    22    17    19    2
    23    18    20    1
@<TRIPOS>MOLECULE
MolPort-051-610-737 CSSS09312299681 MCULE-6652970942
 22 23 0 0 0
SMALL
GASTEIGER

@<TRIPOS>ATOM
      1 C           9.7276   40.7438    9.2777 C.3     1  UNL1        0.0807
      2 C           7.4787   41.0896    8.1372 C.ar    1  UNL1        0.0679
      3 C           6.5613   40.7094    7.1444 C.ar    1  UNL1        0.0035
      4 C           6.8476   39.6596    6.2697 C.ar    1  UNL1       -0.0001
      5 C           8.0592   38.9768    6.3730 C.ar    1  UNL1       -0.0003
      6 C           8.9828   39.3408    7.3537 C.ar    1  UNL1       -0.0039
      7 C           8.7027   40.3867    8.2440 C.ar    1  UNL1       -0.0117
      8 F           5.9367   42.8038    8.6742 F       1  UNL1       -0.1659
      9 F           7.0511   41.7957   10.3551 F       1  UNL1       -0.1659
     10 F           8.1188   43.2261    8.9916 F       1  UNL1       -0.1659
     11 C           7.1435   42.2444    9.0501 C.3     1  UNL1        0.4183
     12 C          10.9980   41.1972    8.6396 C.ar    1  UNL1        0.1167
     13 C          13.2257   41.6562    7.9021 C.ar    1  UNL1        0.1878
     14 S          12.5448   40.8496    9.2112 S.2     1  UNL1       -0.0344
     15 N          12.2818   42.1535    7.0726 N.ar    1  UNL1       -0.1256
     16 N          11.0416   41.8934    7.4822 N.ar    1  UNL1       -0.1437
     17 C          15.2763   42.9481    7.1501 C.2     1  UNL1        0.2442
     18 N          14.6346   41.7897    7.6926 N.am    1  UNL1       -0.2617
     19 O          14.6085   43.9564    6.7975 O.2     1  UNL1       -0.2733
     20 H          15.2058   41.0270    7.9404 H       1  UNL1        0.1568
     21 C          16.7517   42.9473    6.9667 C.3     1  UNL1        0.1798
     22 CL         17.2613   44.4637    6.1875 Cl      1  UNL1       -0.1033
@<TRIPOS>BOND
     1    11     8    1
     2    11     2    1
     3    11     9    1
     4    11    10    1
     5     3     4   ar
     6     5     6   ar
     7     7     2   ar
     8     1     7    1
     9     1    12    1
    10    12    14   ar
    11    13    14   ar
    12    13    18    1
    13    21    17    1
    14    21    22    1
    15    15    16   ar
    16    18    17   am
    17     2     3   ar
    18     4     5   ar
    19     6     7   ar
    20    12    16   ar
    21    13    15   ar
    22    17    19    2
    23    18    20    1
@<TRIPOS>MOLECULE
MolPort-051-610-737 CSSS09312299681 MCULE-6652970942
 22 23 0 0 0
SMALL
GASTEIGER

@<TRIPOS>ATOM
      1 C          14.5710   40.9258    8.2579 C.3     1  UNL1        0.0807
      2 C          16.0950   42.8584    7.6093 C.ar    1  UNL1        0.0679
      3 C          16.3224   44.0017    6.8264 C.ar    1  UNL1        0.0035
      4 C          15.3680   44.4410    5.9070 C.ar    1  UNL1       -0.0001
      5 C          14.1724   43.7395    5.7544 C.ar    1  UNL1       -0.0003
      6 C          13.9292   42.6012    6.5241 C.ar    1  UNL1       -0.0039
      7 C          14.8756   42.1559    7.4574 C.ar    1  UNL1       -0.0117
      8 F          18.2531   41.9231    7.8784 F       1  UNL1       -0.1659
      9 F          17.5552   43.4620    9.3711 F       1  UNL1       -0.1659
     10 F          16.6880   41.3902    9.3974 F       1  UNL1       -0.1659
     11 C          17.1601   42.4011    8.5766 C.3     1  UNL1        0.4183
     12 C          13.1652   40.9451    8.7578 C.ar    1  UNL1        0.1167
     13 C          11.0862   40.8394    9.9340 C.ar    1  UNL1        0.1878
     14 S          12.6574   40.3240   10.2399 S.2     1  UNL1       -0.0344
     15 N          10.9867   41.4667    8.7412 N.ar    1  UNL1       -0.1256
     16 N          12.1462   41.5288    8.0891 N.ar    1  UNL1       -0.1437
     17 C           9.1471   41.6815   11.3377 C.2     1  UNL1        0.2442
     18 N           9.9926   40.6419   10.8349 N.am    1  UNL1       -0.2617
     19 O           9.3324   42.8845   11.0133 O.2     1  UNL1       -0.2733
     20 H           9.8076   39.7216   11.1314 H       1  UNL1        0.1568
     21 C           8.0547   41.3397   12.2865 C.3     1  UNL1        0.1798
     22 CL          6.4860   41.4167   11.4500 Cl      1  UNL1       -0.1033
@<TRIPOS>BOND
     1    11     8    1
     2    11     2    1
     3    11     9    1
     4    11    10    1
     5     3     4   ar
     6     5     6   ar
     7     7     2   ar
     8     1     7    1
     9     1    12    1
    10    12    14   ar
    11    13    14   ar
    12    13    18    1
    13    21    17    1
    14    21    22    1
    15    15    16   ar
    16    18    17   am
    17     2     3   ar
    18     4     5   ar
    19     6     7   ar
    20    12    16   ar
    21    13    15   ar
    22    17    19    2
    23    18    20    1
@<TRIPOS>MOLECULE
MolPort-051-610-737 CSSS09312299681 MCULE-6652970942
 22 23 0 0 0
SMALL
GASTEIGER

@<TRIPOS>ATOM
      1 C          11.2277   39.1366    8.4286 C.3     1  UNL1        0.0807
      2 C          12.1527   39.6828   10.7359 C.ar    1  UNL1        0.0679
      3 C          13.0993   39.4348   11.7430 C.ar    1  UNL1        0.0035
      4 C          14.0805   38.4555   11.5775 C.ar    1  UNL1       -0.0001
      5 C          14.1263   37.7061   10.4022 C.ar    1  UNL1       -0.0003
      6 C          13.1937   37.9390    9.3905 C.ar    1  UNL1       -0.0039
      7 C          12.2099   38.9262    9.5410 C.ar    1  UNL1       -0.0117
      8 F          11.4627   41.9124   10.3391 F       1  UNL1       -0.1659
      9 F           9.8881   40.3016   10.4369 F       1  UNL1       -0.1659
     10 F          10.9190   40.9871   12.3111 F       1  UNL1       -0.1659
     11 C          11.0929   40.7343   10.9604 C.3     1  UNL1        0.4183
     12 C          11.6562   40.2550    7.5385 C.ar    1  UNL1        0.1167
     13 C          12.7311   41.9976    6.3034 C.ar    1  UNL1        0.1878
     14 S          13.1331   41.0605    7.6407 S.2     1  UNL1       -0.0344
     15 N          11.5127   41.6777    5.8141 N.ar    1  UNL1       -0.1256
     16 N          10.9170   40.7040    6.5002 N.ar    1  UNL1       -0.1437
     17 C          14.9069   43.2999    6.2075 C.2     1  UNL1        0.2442
     18 N          13.5833   43.0046    5.7501 N.am    1  UNL1       -0.2617
     19 O          15.4160   42.6728    7.1741 O.2     1  UNL1       -0.2733
     20 H          13.2329   43.5344    4.9980 H       1  UNL1        0.1568
     21 C          15.6797   44.3889    5.5537 C.3     1  UNL1        0.1798
     22 CL         17.4094   43.9716    5.5363 Cl      1  UNL1       -0.1033
@<TRIPOS>BOND
     1    11     8    1
     2    11     2    1
     3    11     9    1
     4    11    10    1
     5     3     4   ar
     6     5     6   ar
     7     7     2   ar
     8     1     7    1
     9     1    12    1
    10    12    14   ar
    11    13    14   ar
    12    13    18    1
    13    21    17    1
    14    21    22    1
    15    15    16   ar
    16    18    17   am
    17     2     3   ar
    18     4     5   ar
    19     6     7   ar
    20    12    16   ar
    21    13    15   ar
    22    17    19    2
    23    18    20    1
@<TRIPOS>MOLECULE
MolPort-051-610-737 CSSS09312299681 MCULE-6652970942
 22 23 0 0 0
SMALL
GASTEIGER

@<TRIPOS>ATOM
      1 C          10.7290   40.0038    8.1397 C.3     1  UNL1        0.0807
      2 C           8.7815   41.2870    9.1588 C.ar    1  UNL1        0.0679
      3 C           8.1769   41.8588   10.2898 C.ar    1  UNL1        0.0035
      4 C           8.7902   41.7881   11.5420 C.ar    1  UNL1       -0.0001
      5 C          10.0170   41.1398   11.6817 C.ar    1  UNL1       -0.0003
      6 C          10.6327   40.5660   10.5686 C.ar    1  UNL1       -0.0039
      7 C          10.0314   40.6389    9.3044 C.ar    1  UNL1       -0.0117
      8 F           7.7984   40.0896    7.3687 F       1  UNL1       -0.1659
      9 F           6.8945   42.0679    7.9629 F       1  UNL1       -0.1659
     10 F           8.8628   42.0057    6.8825 F       1  UNL1       -0.1659
     11 C           8.0771   41.3640    7.8257 C.3     1  UNL1        0.4183
     12 C          12.1201   40.5246    7.9981 C.ar    1  UNL1        0.1167
     13 C          14.1572   41.7142    7.6079 C.ar    1  UNL1        0.1878
     14 S          12.5456   41.9366    7.1823 S.2     1  UNL1       -0.0344
     15 N          14.3308   40.5999    8.3525 N.ar    1  UNL1       -0.1256
     16 N          13.1948   39.9407    8.5728 N.ar    1  UNL1       -0.1437
     17 C          15.0305   43.8391    6.5301 C.2     1  UNL1        0.2442
     18 N          15.2116   42.6047    7.2313 N.am    1  UNL1       -0.2617
     19 O          13.8844   44.2241    6.1764 O.2     1  UNL1       -0.2733
     20 H          16.1312   42.3491    7.4727 H       1  UNL1        0.1568
     21 C          16.2184   44.6628    6.1824 C.3     1  UNL1        0.1798
     22 CL         17.6055   44.1692    7.1818 Cl      1  UNL1       -0.1033
@<TRIPOS>BOND
     1    11     8    1
     2    11     2    1
     3    11     9    1
     4    11    10    1
     5     3     4   ar
     6     5     6   ar
     7     7     2   ar
     8     1     7    1
     9     1    12    1
    10    12    14   ar
    11    13    14   ar
    12    13    18    1
    13    21    17    1
    14    21    22    1
    15    15    16   ar
    16    18    17   am
    17     2     3   ar
    18     4     5   ar
    19     6     7   ar
    20    12    16   ar
    21    13    15   ar
    22    17    19    2
    23    18    20    1
