@<TRIPOS>MOLECULE
Molport-053-366-839
 23 25 0 0 0
SMALL
GASTEIGER

@<TRIPOS>ATOM
      1 O          10.2319   40.5394   10.4987 O.2     1  UNL1       -0.2697
      2 C          10.3963   40.2281    9.2873 C.2     1  UNL1        0.2521
      3 N          11.5520   39.4682    8.8942 N.am    1  UNL1       -0.2644
      4 H          11.5604   39.0585    7.9991 H       1  UNL1        0.1566
      5 C          12.6940   39.2775    9.7424 C.ar    1  UNL1        0.1553
      6 C          14.5901   38.6030   10.5627 C.ar    1  UNL1        0.0774
      7 C          15.7886   37.9032   10.6811 C.ar    1  UNL1        0.0299
      8 C          16.1140   36.9891    9.6590 C.ar    1  UNL1        0.0592
      9 C          15.2413   36.8037    8.5594 C.ar    1  UNL1        0.0116
     10 C          14.0374   37.5289    8.4718 C.ar    1  UNL1        0.0052
     11 C          13.7493   38.4224    9.5013 C.ar    1  UNL1        0.0505
     12 N          12.9147   39.9400   10.9041 N.ar    1  UNL1       -0.1574
     13 N          14.0742   39.5195   11.3994 N.ar    1  UNL1       -0.2745
     14 CL         17.6091   36.0770    9.7498 Cl      1  UNL1       -0.0822
     15 H          14.4861   39.8278   12.2387 H       1  UNL1        0.1890
     16 O           6.4704   41.7735    5.5099 O.3     1  UNL1       -0.4919
     17 C           7.4321   41.3840    6.4364 C.ar    1  UNL1        0.2216
     18 C           7.7502   40.0335    6.5843 C.ar    1  UNL1        0.0577
     19 C           8.7179   39.6561    7.5168 C.ar    1  UNL1        0.0109
     20 C           9.3719   40.6284    8.2924 C.ar    1  UNL1        0.0730
     21 C           9.0092   41.9755    8.1143 C.ar    1  UNL1        0.1065
     22 N           8.0608   42.3162    7.2012 N.ar    1  UNL1       -0.2101
     23 H           6.2562   42.6802    5.4101 H       1  UNL1        0.2937
@<TRIPOS>BOND
     1    17    16    1
     2    17    22   ar
     3    18    19   ar
     4    20    21   ar
     5    20     2    1
     6     2     3   am
     7     7     8   ar
     8     8    14    1
     9     9    10   ar
    10    11     5   ar
    11    11     6   ar
    12     3     5    1
    13    13    12   ar
    14    13     6   ar
    15    17    18   ar
    16    19    20   ar
    17    21    22   ar
    18     2     1    2
    19     5    12   ar
    20     6     7   ar
    21     8     9   ar
    22    10    11   ar
    23    16    23    1
    24     3     4    1
    25    13    15    1
@<TRIPOS>MOLECULE
Molport-053-366-839
 23 25 0 0 0
SMALL
GASTEIGER

@<TRIPOS>ATOM
      1 O          12.3027   41.2561    7.5182 O.2     1  UNL1       -0.2697
      2 C          12.3936   42.1090    6.5931 C.2     1  UNL1        0.2521
      3 N          11.2531   42.3889    5.7633 N.am    1  UNL1       -0.2644
      4 H          11.2743   43.1920    5.1942 H       1  UNL1        0.1566
      5 C          10.0854   41.5555    5.7238 C.ar    1  UNL1        0.1553
      6 C           8.1542   40.6538    6.1493 C.ar    1  UNL1        0.0774
      7 C           6.9383   40.4048    6.7814 C.ar    1  UNL1        0.0299
      8 C           6.6204   41.1816    7.9135 C.ar    1  UNL1        0.0592
      9 C           7.5177   42.1749    8.3755 C.ar    1  UNL1        0.0116
     10 C           8.7387   42.4002    7.7113 C.ar    1  UNL1        0.0052
     11 C           9.0187   41.6123    6.5967 C.ar    1  UNL1        0.0505
     12 N           9.8483   40.5986    4.7935 N.ar    1  UNL1       -0.1574
     13 N           8.6675   40.0514    5.0631 N.ar    1  UNL1       -0.2745
     14 CL          5.1043   40.9164    8.7540 Cl      1  UNL1       -0.0822
     15 H           8.2402   39.3262    4.5524 H       1  UNL1        0.1890
     16 O          17.2801   44.8654    5.8230 O.3     1  UNL1       -0.4919
     17 C          16.0848   44.1815    6.0181 C.ar    1  UNL1        0.2216
     18 C          16.0132   43.1603    6.9662 C.ar    1  UNL1        0.0577
     19 C          14.8073   42.4825    7.1530 C.ar    1  UNL1        0.0109
     20 C          13.6739   42.8320    6.3994 C.ar    1  UNL1        0.0730
     21 C          13.7988   43.8610    5.4487 C.ar    1  UNL1        0.1065
     22 N          14.9861   44.5032    5.2842 N.ar    1  UNL1       -0.2101
     23 H          17.3290   45.5513    5.1865 H       1  UNL1        0.2937
@<TRIPOS>BOND
     1    17    16    1
     2    17    22   ar
     3    18    19   ar
     4    20    21   ar
     5    20     2    1
     6     2     3   am
     7     7     8   ar
     8     8    14    1
     9     9    10   ar
    10    11     5   ar
    11    11     6   ar
    12     3     5    1
    13    13    12   ar
    14    13     6   ar
    15    17    18   ar
    16    19    20   ar
    17    21    22   ar
    18     2     1    2
    19     5    12   ar
    20     6     7   ar
    21     8     9   ar
    22    10    11   ar
    23    16    23    1
    24     3     4    1
    25    13    15    1
@<TRIPOS>MOLECULE
Molport-053-366-839
 23 25 0 0 0
SMALL
GASTEIGER

@<TRIPOS>ATOM
      1 O           6.7604   41.2130    9.0009 O.2     1  UNL1       -0.2697
      2 C           6.6987   42.4305    9.3252 C.2     1  UNL1        0.2521
      3 N           7.7549   43.0180   10.1044 N.am    1  UNL1       -0.2644
      4 H           7.7982   43.9994   10.1693 H       1  UNL1        0.1566
      5 C           8.7491   42.2443   10.7919 C.ar    1  UNL1        0.1553
      6 C          10.5651   41.1625   11.2970 C.ar    1  UNL1        0.0774
      7 C          11.8307   40.5969   11.1612 C.ar    1  UNL1        0.0299
      8 C          12.4853   40.7523    9.9228 C.ar    1  UNL1        0.0592
      9 C          11.8624   41.4620    8.8675 C.ar    1  UNL1        0.0116
     10 C          10.5817   42.0214    9.0401 C.ar    1  UNL1        0.0052
     11 C           9.9656   41.8463   10.2775 C.ar    1  UNL1        0.0505
     12 N           8.6445   41.8116   12.0722 N.ar    1  UNL1       -0.1574
     13 N           9.7575   41.1495   12.3711 N.ar    1  UNL1       -0.2745
     14 CL         14.0809   40.0634    9.6885 Cl      1  UNL1       -0.0822
     15 H           9.9569   40.7212   13.2348 H       1  UNL1        0.1890
     16 O           2.2817   45.5084    7.5683 O.3     1  UNL1       -0.4919
     17 C           3.3726   44.7570    7.9928 C.ar    1  UNL1        0.2216
     18 C           4.6525   45.0637    7.5293 C.ar    1  UNL1        0.0577
     19 C           5.7388   44.3026    7.9639 C.ar    1  UNL1        0.0109
     20 C           5.5459   43.2434    8.8670 C.ar    1  UNL1        0.0730
     21 C           4.2359   42.9666    9.2974 C.ar    1  UNL1        0.1065
     22 N           3.1944   43.7215    8.8561 N.ar    1  UNL1       -0.2101
     23 H           1.4220   45.3031    7.8792 H       1  UNL1        0.2937
@<TRIPOS>BOND
     1    17    16    1
     2    17    22   ar
     3    18    19   ar
     4    20    21   ar
     5    20     2    1
     6     2     3   am
     7     7     8   ar
     8     8    14    1
     9     9    10   ar
    10    11     5   ar
    11    11     6   ar
    12     3     5    1
    13    13    12   ar
    14    13     6   ar
    15    17    18   ar
    16    19    20   ar
    17    21    22   ar
    18     2     1    2
    19     5    12   ar
    20     6     7   ar
    21     8     9   ar
    22    10    11   ar
    23    16    23    1
    24     3     4    1
    25    13    15    1
@<TRIPOS>MOLECULE
Molport-053-366-839
 23 25 0 0 0
SMALL
GASTEIGER

@<TRIPOS>ATOM
      1 O          12.8187   40.5579    7.3301 O.2     1  UNL1       -0.2697
      2 C          12.9639   41.7870    7.5746 C.2     1  UNL1        0.2521
      3 N          12.0270   42.4615    8.4319 N.am    1  UNL1       -0.2644
      4 H          12.2663   43.3516    8.7779 H       1  UNL1        0.1566
      5 C          10.7603   41.9014    8.8079 C.ar    1  UNL1        0.1553
      6 C           8.7779   41.0122    8.7560 C.ar    1  UNL1        0.0774
      7 C           7.5901   40.4945    8.2449 C.ar    1  UNL1        0.0299
      8 C           7.4371   40.4731    6.8441 C.ar    1  UNL1        0.0592
      9 C           8.4656   40.9639    6.0037 C.ar    1  UNL1        0.0116
     10 C           9.6542   41.4800    6.5549 C.ar    1  UNL1        0.0052
     11 C           9.7689   41.4857    7.9435 C.ar    1  UNL1        0.0505
     12 N          10.3630   41.6726   10.0835 N.ar    1  UNL1       -0.1574
     13 N           9.1497   41.1316   10.0419 N.ar    1  UNL1       -0.2745
     14 CL          5.9643   39.8338    6.1385 Cl      1  UNL1       -0.0822
     15 H           8.6132   40.8633   10.8225 H       1  UNL1        0.1890
     16 O          17.3824   44.5273    5.3304 O.3     1  UNL1       -0.4919
     17 C          16.3035   43.8493    5.8881 C.ar    1  UNL1        0.2216
     18 C          16.4786   43.0976    7.0505 C.ar    1  UNL1        0.0577
     19 C          15.3875   42.4229    7.6006 C.ar    1  UNL1        0.0109
     20 C          14.1228   42.5078    6.9941 C.ar    1  UNL1        0.0730
     21 C          13.9989   43.2693    5.8182 C.ar    1  UNL1        0.1065
     22 N          15.0786   43.9142    5.3010 N.ar    1  UNL1       -0.2101
     23 H          17.2655   45.0322    4.5498 H       1  UNL1        0.2937
@<TRIPOS>BOND
     1    17    16    1
     2    17    22   ar
     3    18    19   ar
     4    20    21   ar
     5    20     2    1
     6     2     3   am
     7     7     8   ar
     8     8    14    1
     9     9    10   ar
    10    11     5   ar
    11    11     6   ar
    12     3     5    1
    13    13    12   ar
    14    13     6   ar
    15    17    18   ar
    16    19    20   ar
    17    21    22   ar
    18     2     1    2
    19     5    12   ar
    20     6     7   ar
    21     8     9   ar
    22    10    11   ar
    23    16    23    1
    24     3     4    1
    25    13    15    1
@<TRIPOS>MOLECULE
Molport-053-366-839
 23 25 0 0 0
SMALL
GASTEIGER

@<TRIPOS>ATOM
      1 O           7.3902   43.9634    7.7627 O.2     1  UNL1       -0.2697
      2 C           7.0557   42.7913    8.0877 C.2     1  UNL1        0.2521
      3 N           7.9646   41.6997    7.8641 N.am    1  UNL1       -0.2644
      4 H           7.7809   40.8397    8.3067 H       1  UNL1        0.1566
      5 C           9.1263   41.8020    7.0275 C.ar    1  UNL1        0.1553
      6 C          11.1762   41.8797    6.3098 C.ar    1  UNL1        0.0774
      7 C          12.5689   41.8867    6.3291 C.ar    1  UNL1        0.0299
      8 C          13.2045   41.7801    7.5824 C.ar    1  UNL1        0.0592
      9 C          12.4373   41.6699    8.7675 C.ar    1  UNL1        0.0116
     10 C          11.0303   41.6656    8.7107 C.ar    1  UNL1        0.0052
     11 C          10.4378   41.7738    7.4543 C.ar    1  UNL1        0.0505
     12 N           9.1003   41.9149    5.6770 N.ar    1  UNL1       -0.1574
     13 N          10.3571   41.9643    5.2477 N.ar    1  UNL1       -0.2745
     14 CL         14.9558   41.7830    7.6738 Cl      1  UNL1       -0.0822
     15 H          10.6406   42.0488    4.3087 H       1  UNL1        0.1890
     16 O           2.0198   41.9599   10.5409 O.3     1  UNL1       -0.4919
     17 C           3.2601   42.1551    9.9422 C.ar    1  UNL1        0.2216
     18 C           4.1944   41.1190    9.9214 C.ar    1  UNL1        0.0577
     19 C           5.4349   41.3276    9.3164 C.ar    1  UNL1        0.0109
     20 C           5.7359   42.5667    8.7259 C.ar    1  UNL1        0.0730
     21 C           4.7655   43.5832    8.7817 C.ar    1  UNL1        0.1065
     22 N           3.5659   43.3550    9.3800 N.ar    1  UNL1       -0.2101
     23 H           1.3919   42.6552   10.5553 H       1  UNL1        0.2937
@<TRIPOS>BOND
     1    17    16    1
     2    17    22   ar
     3    18    19   ar
     4    20    21   ar
     5    20     2    1
     6     2     3   am
     7     7     8   ar
     8     8    14    1
     9     9    10   ar
    10    11     5   ar
    11    11     6   ar
    12     3     5    1
    13    13    12   ar
    14    13     6   ar
    15    17    18   ar
    16    19    20   ar
    17    21    22   ar
    18     2     1    2
    19     5    12   ar
    20     6     7   ar
    21     8     9   ar
    22    10    11   ar
    23    16    23    1
    24     3     4    1
    25    13    15    1
@<TRIPOS>MOLECULE
Molport-053-366-839
 23 25 0 0 0
SMALL
GASTEIGER

@<TRIPOS>ATOM
      1 O          11.7755   41.2562    8.0569 O.2     1  UNL1       -0.2697
      2 C          11.9522   40.1850    7.4144 C.2     1  UNL1        0.2521
      3 N          13.0595   39.3282    7.7424 N.am    1  UNL1       -0.2644
      4 H          13.0640   38.4114    7.3837 H       1  UNL1        0.1566
      5 C          14.1585   39.7436    8.5667 C.ar    1  UNL1        0.1553
      6 C          15.8468   40.8344    9.3930 C.ar    1  UNL1        0.0774
      7 C          16.8413   41.8009    9.5242 C.ar    1  UNL1        0.0299
      8 C          16.9220   42.7935    8.5270 C.ar    1  UNL1        0.0592
      9 C          16.0152   42.7915    7.4394 C.ar    1  UNL1        0.0116
     10 C          15.0215   41.7989    7.3387 C.ar    1  UNL1        0.0052
     11 C          14.9733   40.8340    8.3427 C.ar    1  UNL1        0.0505
     12 N          14.5407   39.1310    9.7138 N.ar    1  UNL1       -0.1574
     13 N          15.5744   39.8028   10.2101 N.ar    1  UNL1       -0.2745
     14 CL         18.1524   44.0385    8.6351 Cl      1  UNL1       -0.0822
     15 H          16.0594   39.5818   11.0379 H       1  UNL1        0.1890
     16 O           8.2798   38.7399    3.3531 O.3     1  UNL1       -0.4919
     17 C           9.1885   39.0981    4.3434 C.ar    1  UNL1        0.2216
     18 C          10.3244   39.8377    4.0122 C.ar    1  UNL1        0.0577
     19 C          11.2278   40.1916    5.0156 C.ar    1  UNL1        0.0109
     20 C          10.9903   39.8142    6.3482 C.ar    1  UNL1        0.0730
     21 C           9.8369   39.0605    6.6305 C.ar    1  UNL1        0.1065
     22 N           8.9744   38.7261    5.6338 N.ar    1  UNL1       -0.2101
     23 H           7.5168   38.2433    3.5748 H       1  UNL1        0.2937
@<TRIPOS>BOND
     1    17    16    1
     2    17    22   ar
     3    18    19   ar
     4    20    21   ar
     5    20     2    1
     6     2     3   am
     7     7     8   ar
     8     8    14    1
     9     9    10   ar
    10    11     5   ar
    11    11     6   ar
    12     3     5    1
    13    13    12   ar
    14    13     6   ar
    15    17    18   ar
    16    19    20   ar
    17    21    22   ar
    18     2     1    2
    19     5    12   ar
    20     6     7   ar
    21     8     9   ar
    22    10    11   ar
    23    16    23    1
    24     3     4    1
    25    13    15    1
@<TRIPOS>MOLECULE
Molport-053-366-839
 23 25 0 0 0
SMALL
GASTEIGER

@<TRIPOS>ATOM
      1 O          10.4853   40.6401    9.4982 O.2     1  UNL1       -0.2697
      2 C          10.4125   40.2239    8.3095 C.2     1  UNL1        0.2521
      3 N          11.6123   39.8697    7.6006 N.am    1  UNL1       -0.2644
      4 H          11.5276   39.3564    6.7647 H       1  UNL1        0.1566
      5 C          12.9271   40.2274    8.0512 C.ar    1  UNL1        0.1553
      6 C          14.8376   41.2288    8.3164 C.ar    1  UNL1        0.0774
      7 C          15.8724   42.1420    8.1284 C.ar    1  UNL1        0.0299
      8 C          15.6997   43.1286    7.1369 C.ar    1  UNL1        0.0592
      9 C          14.5096   43.1736    6.3709 C.ar    1  UNL1        0.0116
     10 C          13.4833   42.2343    6.5884 C.ar    1  UNL1        0.0052
     11 C          13.6904   41.2736    7.5760 C.ar    1  UNL1        0.0505
     12 N          13.6047   39.5960    9.0409 N.ar    1  UNL1       -0.1574
     13 N          14.7718   40.2132    9.1941 N.ar    1  UNL1       -0.2745
     14 CL         16.9662   44.3076    6.8516 Cl      1  UNL1       -0.0822
     15 H          15.4710   39.9675    9.8421 H       1  UNL1        0.1890
     16 O           5.3381   39.6673    5.8579 O.3     1  UNL1       -0.4919
     17 C           6.5816   39.8131    6.4640 C.ar    1  UNL1        0.2216
     18 C           6.7890   40.8350    7.3912 C.ar    1  UNL1        0.0577
     19 C           8.0412   40.9696    7.9931 C.ar    1  UNL1        0.0109
     20 C           9.0800   40.0785    7.6747 C.ar    1  UNL1        0.0730
     21 C           8.8251   39.0714    6.7266 C.ar    1  UNL1        0.1065
     22 N           7.5971   38.9641    6.1525 N.ar    1  UNL1       -0.2101
     23 H           5.1981   38.9813    5.2351 H       1  UNL1        0.2937
@<TRIPOS>BOND
     1    17    16    1
     2    17    22   ar
     3    18    19   ar
     4    20    21   ar
     5    20     2    1
     6     2     3   am
     7     7     8   ar
     8     8    14    1
     9     9    10   ar
    10    11     5   ar
    11    11     6   ar
    12     3     5    1
    13    13    12   ar
    14    13     6   ar
    15    17    18   ar
    16    19    20   ar
    17    21    22   ar
    18     2     1    2
    19     5    12   ar
    20     6     7   ar
    21     8     9   ar
    22    10    11   ar
    23    16    23    1
    24     3     4    1
    25    13    15    1
@<TRIPOS>MOLECULE
Molport-053-366-839
 23 25 0 0 0
SMALL
GASTEIGER

@<TRIPOS>ATOM
      1 O          11.3501   40.7964    8.5502 O.2     1  UNL1       -0.2697
      2 C          11.3072   40.5319    9.7830 C.2     1  UNL1        0.2521
      3 N          10.4531   41.2979   10.6498 N.am    1  UNL1       -0.2644
      4 H          10.2720   40.9517   11.5535 H       1  UNL1        0.1566
      5 C           9.8515   42.5421   10.2628 C.ar    1  UNL1        0.1553
      6 C           8.4765   44.0437    9.5027 C.ar    1  UNL1        0.0774
      7 C           7.3434   44.6008    8.9145 C.ar    1  UNL1        0.0299
      8 C           6.3394   43.7184    8.4678 C.ar    1  UNL1        0.0592
      9 C           6.4954   42.3194    8.6212 C.ar    1  UNL1        0.0116
     10 C           7.6544   41.7906    9.2211 C.ar    1  UNL1        0.0052
     11 C           8.6253   42.6936    9.6493 C.ar    1  UNL1        0.0505
     12 N          10.3980   43.7646   10.4726 N.ar    1  UNL1       -0.1574
     13 N           9.5520   44.6756   10.0027 N.ar    1  UNL1       -0.2745
     14 CL          4.8884   44.3577    7.7186 Cl      1  UNL1       -0.0822
     15 H           9.6902   45.6503   10.0182 H       1  UNL1        0.1890
     16 O          14.3862   36.2315   11.8066 O.3     1  UNL1       -0.4919
     17 C          13.6350   37.2943   11.3158 C.ar    1  UNL1        0.2216
     18 C          13.9818   38.6044   11.6477 C.ar    1  UNL1        0.0577
     19 C          13.2203   39.6620   11.1476 C.ar    1  UNL1        0.0109
     20 C          12.1203   39.4094   10.3105 C.ar    1  UNL1        0.0730
     21 C          11.8043   38.0715   10.0131 C.ar    1  UNL1        0.1065
     22 N          12.5606   37.0594   10.5159 N.ar    1  UNL1       -0.2101
     23 H          14.1539   35.3514   11.5842 H       1  UNL1        0.2937
@<TRIPOS>BOND
     1    17    16    1
     2    17    22   ar
     3    18    19   ar
     4    20    21   ar
     5    20     2    1
     6     2     3   am
     7     7     8   ar
     8     8    14    1
     9     9    10   ar
    10    11     5   ar
    11    11     6   ar
    12     3     5    1
    13    13    12   ar
    14    13     6   ar
    15    17    18   ar
    16    19    20   ar
    17    21    22   ar
    18     2     1    2
    19     5    12   ar
    20     6     7   ar
    21     8     9   ar
    22    10    11   ar
    23    16    23    1
    24     3     4    1
    25    13    15    1
@<TRIPOS>MOLECULE
Molport-053-366-839
 23 25 0 0 0
SMALL
GASTEIGER

@<TRIPOS>ATOM
      1 O          11.8719   41.0985    5.7289 O.2     1  UNL1       -0.2697
      2 C          12.2777   41.8162    6.6837 C.2     1  UNL1        0.2521
      3 N          11.5792   41.7970    7.9404 N.am    1  UNL1       -0.2644
      4 H          12.0206   42.1914    8.7271 H       1  UNL1        0.1566
      5 C          10.2705   41.2313    8.1046 C.ar    1  UNL1        0.1553
      6 C           8.1385   40.9762    8.4404 C.ar    1  UNL1        0.0774
      7 C           6.8118   41.2943    8.7212 C.ar    1  UNL1        0.0299
      8 C           6.5058   42.6452    8.9814 C.ar    1  UNL1        0.0592
      9 C           7.5243   43.6286    8.9527 C.ar    1  UNL1        0.0116
     10 C           8.8555   43.2712    8.6646 C.ar    1  UNL1        0.0052
     11 C           9.1197   41.9264    8.4137 C.ar    1  UNL1        0.0505
     12 N           9.9695   39.9188    7.9503 N.ar    1  UNL1       -0.1574
     13 N           8.6653   39.7721    8.1599 N.ar    1  UNL1       -0.2745
     14 CL          4.8537   43.1102    9.3417 Cl      1  UNL1       -0.0822
     15 H           8.1682   38.9234    8.1168 H       1  UNL1        0.1890
     16 O          16.9143   44.9828    5.9464 O.3     1  UNL1       -0.4919
     17 C          15.7810   44.1983    6.1331 C.ar    1  UNL1        0.2216
     18 C          15.8046   43.1475    7.0508 C.ar    1  UNL1        0.0577
     19 C          14.6601   42.3686    7.2295 C.ar    1  UNL1        0.0109
     20 C          13.4926   42.6465    6.4986 C.ar    1  UNL1        0.0730
     21 C          13.5214   43.7095    5.5781 C.ar    1  UNL1        0.1065
     22 N          14.6505   44.4508    5.4207 N.ar    1  UNL1       -0.2101
     23 H          16.8992   45.6887    5.3303 H       1  UNL1        0.2937
@<TRIPOS>BOND
     1    17    16    1
     2    17    22   ar
     3    18    19   ar
     4    20    21   ar
     5    20     2    1
     6     2     3   am
     7     7     8   ar
     8     8    14    1
     9     9    10   ar
    10    11     5   ar
    11    11     6   ar
    12     3     5    1
    13    13    12   ar
    14    13     6   ar
    15    17    18   ar
    16    19    20   ar
    17    21    22   ar
    18     2     1    2
    19     5    12   ar
    20     6     7   ar
    21     8     9   ar
    22    10    11   ar
    23    16    23    1
    24     3     4    1
    25    13    15    1
@<TRIPOS>MOLECULE
Molport-053-366-839
 23 25 0 0 0
SMALL
GASTEIGER

@<TRIPOS>ATOM
      1 O           9.3424   43.6922    9.8158 O.2     1  UNL1       -0.2697
      2 C           8.6437   42.9032    9.1225 C.2     1  UNL1        0.2521
      3 N           9.2626   41.7749    8.4809 N.am    1  UNL1       -0.2644
      4 H           8.6830   41.0630    8.1251 H       1  UNL1        0.1566
      5 C          10.6833   41.6353    8.3335 C.ar    1  UNL1        0.1553
      6 C          12.7683   41.1082    8.6469 C.ar    1  UNL1        0.0774
      7 C          13.9073   40.5827    9.2524 C.ar    1  UNL1        0.0299
      8 C          13.7464   39.9346   10.4934 C.ar    1  UNL1        0.0592
      9 C          12.4648   39.8309   11.0865 C.ar    1  UNL1        0.0116
     10 C          11.3344   40.3735   10.4457 C.ar    1  UNL1        0.0052
     11 C          11.5327   41.0076    9.2209 C.ar    1  UNL1        0.0505
     12 N          11.3993   42.0827    7.2732 N.ar    1  UNL1       -0.1574
     13 N          12.6724   41.7584    7.4747 N.ar    1  UNL1       -0.2745
     14 CL         15.1421   39.2518   11.3068 Cl      1  UNL1       -0.0822
     15 H          13.4200   41.9607    6.8669 H       1  UNL1        0.1890
     16 O           3.0735   43.8334    8.7022 O.3     1  UNL1       -0.4919
     17 C           4.4397   43.5961    8.8106 C.ar    1  UNL1        0.2216
     18 C           4.8979   42.3636    9.2774 C.ar    1  UNL1        0.0577
     19 C           6.2716   42.1380    9.3803 C.ar    1  UNL1        0.0109
     20 C           7.1841   43.1398    9.0084 C.ar    1  UNL1        0.0730
     21 C           6.6735   44.3689    8.5537 C.ar    1  UNL1        0.1065
     22 N           5.3306   44.5641    8.4660 N.ar    1  UNL1       -0.2101
     23 H           2.7650   44.6608    8.3888 H       1  UNL1        0.2937
@<TRIPOS>BOND
     1    17    16    1
     2    17    22   ar
     3    18    19   ar
     4    20    21   ar
     5    20     2    1
     6     2     3   am
     7     7     8   ar
     8     8    14    1
     9     9    10   ar
    10    11     5   ar
    11    11     6   ar
    12     3     5    1
    13    13    12   ar
    14    13     6   ar
    15    17    18   ar
    16    19    20   ar
    17    21    22   ar
    18     2     1    2
    19     5    12   ar
    20     6     7   ar
    21     8     9   ar
    22    10    11   ar
    23    16    23    1
    24     3     4    1
    25    13    15    1
