@<TRIPOS>MOLECULE
MolPort-020-278-625 MCULE-3634150499 PubChem-110255497
 27 30 0 0 0
SMALL
GASTEIGER

@<TRIPOS>ATOM
      1 C          11.6262   39.4284    9.9907 C.3     1  UNL1        0.0522
      2 C          11.2224   40.3005    8.8576 C.ar    1  UNL1        0.0635
      3 C          12.1781   40.7491    7.9486 C.ar    1  UNL1        0.0492
      4 C          11.7688   41.5690    6.8913 C.ar    1  UNL1        0.1357
      5 C           9.5344   41.4587    7.6756 C.ar    1  UNL1        0.1414
      6 N          10.4558   41.9036    6.7808 N.ar    1  UNL1       -0.2159
      7 N           9.9220   40.6604    8.7074 N.ar    1  UNL1       -0.2348
      8 C           8.1032   41.8500    7.5136 C.3     1  UNL1        0.0784
      9 C           7.9209   42.7350    6.2791 C.3     1  UNL1        0.0110
     10 C           6.4544   43.1300    6.1194 C.3     1  UNL1        0.0220
     11 C           5.9712   43.8561    7.3712 C.3     1  UNL1        0.0922
     12 C           7.5969   42.5639    8.7668 C.3     1  UNL1        0.0997
     13 N           6.2291   43.0252    8.5457 N.pl3   1  UNL1       -0.2916
     14 C           5.1743   42.6452    9.4438 C.ar    1  UNL1        0.1511
     15 C           4.4741   41.5364   11.4237 C.ar    1  UNL1        0.1210
     16 C           3.1541   41.9103   11.1706 C.ar    1  UNL1        0.1196
     17 C           3.8457   43.0174    9.1954 C.ar    1  UNL1        0.1331
     18 N           5.4519   41.9110   10.5575 N.ar    1  UNL1       -0.2259
     19 N           2.8687   42.6424   10.0623 N.ar    1  UNL1       -0.2378
     20 N          12.6952   42.0691    5.9167 N.pl3   1  UNL1       -0.2833
     21 H          12.5508   41.7763    4.9879 H       1  UNL1        0.1550
     22 C          13.8075   42.9465    6.1396 C.ar    1  UNL1        0.1332
     23 C          14.8703   42.5040    6.9321 C.ar    1  UNL1        0.0345
     24 C          15.9585   43.3491    7.1561 C.ar    1  UNL1        0.0045
     25 C          15.9768   44.6242    6.5893 C.ar    1  UNL1        0.0208
     26 C          14.8987   45.0344    5.8029 C.ar    1  UNL1        0.1003
     27 N          13.8477   44.1958    5.5966 N.ar    1  UNL1       -0.2290
@<TRIPOS>BOND
     1     1     2    1
     2     2     7   ar
     3     3     4   ar
     4     4    20    1
     5     5     6   ar
     6     8     5    1
     7     8     9    1
     8     9    10    1
     9    10    11    1
    10    11    13    1
    11    12    13    1
    12    12     8    1
    13    15    18   ar
    14    16    19   ar
    15    17    14   ar
    16    22    27   ar
    17    23    24   ar
    18    25    26   ar
    19    13    14    1
    20    20    22    1
    21     2     3   ar
    22     4     6   ar
    23     5     7   ar
    24    14    18   ar
    25    15    16   ar
    26    17    19   ar
    27    22    23   ar
    28    24    25   ar
    29    26    27   ar
    30    20    21    1
@<TRIPOS>MOLECULE
MolPort-020-278-625 MCULE-3634150499 PubChem-110255497
 27 30 0 0 0
SMALL
GASTEIGER

@<TRIPOS>ATOM
      1 C          12.1751   35.3666   10.6534 C.3     1  UNL1        0.0522
      2 C          12.2290   36.7599   10.1401 C.ar    1  UNL1        0.0635
      3 C          11.0503   37.4756    9.9419 C.ar    1  UNL1        0.0492
      4 C          11.1317   38.7858    9.4577 C.ar    1  UNL1        0.1357
      5 C          13.4950   38.6113    9.3933 C.ar    1  UNL1        0.1414
      6 N          12.3533   39.3217    9.1954 N.ar    1  UNL1       -0.2159
      7 N          13.4269   37.3363    9.8642 N.ar    1  UNL1       -0.2348
      8 C          14.8144   39.2411    9.0933 C.3     1  UNL1        0.0784
      9 C          15.8759   38.7742   10.0913 C.3     1  UNL1        0.0110
     10 C          17.2229   39.4216    9.7772 C.3     1  UNL1        0.0220
     11 C          17.0912   40.9413    9.8118 C.3     1  UNL1        0.0922
     12 C          14.6971   40.7651    9.1065 C.3     1  UNL1        0.0997
     13 N          16.0176   41.3572    8.9114 N.pl3   1  UNL1       -0.2916
     14 C          16.2494   42.2952    7.8483 C.ar    1  UNL1        0.1511
     15 C          17.7601   43.6211    6.5838 C.ar    1  UNL1        0.1210
     16 C          16.7009   44.0974    5.8108 C.ar    1  UNL1        0.1196
     17 C          15.1895   42.7779    7.0679 C.ar    1  UNL1        0.1331
     18 N          17.5118   42.7333    7.5822 N.ar    1  UNL1       -0.2259
     19 N          15.4390   43.6656    6.0697 N.ar    1  UNL1       -0.2378
     20 N           9.9617   39.5840    9.2289 N.pl3   1  UNL1       -0.2833
     21 H           9.6244   40.0937   10.0007 H       1  UNL1        0.1550
     22 C           9.2270   39.7248    8.0054 C.ar    1  UNL1        0.1332
     23 C           9.6163   38.9750    6.8921 C.ar    1  UNL1        0.0345
     24 C           8.9086   39.1035    5.6957 C.ar    1  UNL1        0.0045
     25 C           7.8223   39.9762    5.6209 C.ar    1  UNL1        0.0208
     26 C           7.4603   40.7101    6.7520 C.ar    1  UNL1        0.1003
     27 N           8.1627   40.5705    7.9085 N.ar    1  UNL1       -0.2290
@<TRIPOS>BOND
     1     1     2    1
     2     2     7   ar
     3     3     4   ar
     4     4    20    1
     5     5     6   ar
     6     8     5    1
     7     8     9    1
     8     9    10    1
     9    10    11    1
    10    11    13    1
    11    12    13    1
    12    12     8    1
    13    15    18   ar
    14    16    19   ar
    15    17    14   ar
    16    22    27   ar
    17    23    24   ar
    18    25    26   ar
    19    13    14    1
    20    20    22    1
    21     2     3   ar
    22     4     6   ar
    23     5     7   ar
    24    14    18   ar
    25    15    16   ar
    26    17    19   ar
    27    22    23   ar
    28    24    25   ar
    29    26    27   ar
    30    20    21    1
@<TRIPOS>MOLECULE
MolPort-020-278-625 MCULE-3634150499 PubChem-110255497
 27 30 0 0 0
SMALL
GASTEIGER

@<TRIPOS>ATOM
      1 C           9.3020   38.7622    3.2135 C.3     1  UNL1        0.0522
      2 C           9.4863   39.2858    4.5917 C.ar    1  UNL1        0.0635
      3 C           8.3757   39.5938    5.3744 C.ar    1  UNL1        0.0492
      4 C           8.5796   40.0849    6.6686 C.ar    1  UNL1        0.1357
      5 C          10.9243   39.9427    6.3491 C.ar    1  UNL1        0.1414
      6 N           9.8501   40.2472    7.1243 N.ar    1  UNL1       -0.2159
      7 N          10.7369   39.4640    5.0890 N.ar    1  UNL1       -0.2348
      8 C          12.3012   40.1350    6.8920 C.3     1  UNL1        0.0784
      9 C          12.4792   39.3633    8.2009 C.3     1  UNL1        0.0110
     10 C          13.8903   39.5638    8.7492 C.3     1  UNL1        0.0220
     11 C          14.1584   41.0500    8.9667 C.3     1  UNL1        0.0922
     12 C          12.5936   41.6209    7.0996 C.3     1  UNL1        0.0997
     13 N          13.9042   41.7770    7.7244 N.pl3   1  UNL1       -0.2916
     14 C          14.9128   42.5981    7.1143 C.ar    1  UNL1        0.1511
     15 C          17.1424   43.4150    7.0837 C.ar    1  UNL1        0.1210
     16 C          16.8527   44.1740    5.9496 C.ar    1  UNL1        0.1196
     17 C          14.6283   43.3635    5.9747 C.ar    1  UNL1        0.1331
     18 N          16.1692   42.6462    7.6392 N.ar    1  UNL1       -0.2259
     19 N          15.6023   44.1318    5.4199 N.ar    1  UNL1       -0.2378
     20 N           7.4855   40.4236    7.5326 N.pl3   1  UNL1       -0.2833
     21 H           7.1512   39.7036    8.1149 H       1  UNL1        0.1550
     22 C           6.8227   41.6904    7.6456 C.ar    1  UNL1        0.1332
     23 C           7.1371   42.7024    6.7344 C.ar    1  UNL1        0.0345
     24 C           6.4983   43.9396    6.8345 C.ar    1  UNL1        0.0045
     25 C           5.5545   44.1554    7.8394 C.ar    1  UNL1        0.0208
     26 C           5.2641   43.1228    8.7329 C.ar    1  UNL1        0.1003
     27 N           5.8975   41.9244    8.6185 N.ar    1  UNL1       -0.2290
@<TRIPOS>BOND
     1     1     2    1
     2     2     7   ar
     3     3     4   ar
     4     4    20    1
     5     5     6   ar
     6     8     5    1
     7     8     9    1
     8     9    10    1
     9    10    11    1
    10    11    13    1
    11    12    13    1
    12    12     8    1
    13    15    18   ar
    14    16    19   ar
    15    17    14   ar
    16    22    27   ar
    17    23    24   ar
    18    25    26   ar
    19    13    14    1
    20    20    22    1
    21     2     3   ar
    22     4     6   ar
    23     5     7   ar
    24    14    18   ar
    25    15    16   ar
    26    17    19   ar
    27    22    23   ar
    28    24    25   ar
    29    26    27   ar
    30    20    21    1
@<TRIPOS>MOLECULE
MolPort-020-278-625 MCULE-3634150499 PubChem-110255497
 27 30 0 0 0
SMALL
GASTEIGER

@<TRIPOS>ATOM
      1 C          13.8248   39.2202   11.3453 C.3     1  UNL1        0.0522
      2 C          13.0337   40.1060   10.4526 C.ar    1  UNL1        0.0635
      3 C          13.5389   40.4699    9.2063 C.ar    1  UNL1        0.0492
      4 C          12.7717   41.3050    8.3867 C.ar    1  UNL1        0.1357
      5 C          11.0800   41.3734   10.0461 C.ar    1  UNL1        0.1414
      6 N          11.5601   41.7363    8.8273 N.ar    1  UNL1       -0.2159
      7 N          11.8181   40.5611   10.8508 N.ar    1  UNL1       -0.2348
      8 C           9.7434   41.8694   10.4876 C.3     1  UNL1        0.0784
      9 C           9.3960   41.3257   11.8748 C.3     1  UNL1        0.0110
     10 C           8.0282   41.8386   12.3201 C.3     1  UNL1        0.0220
     11 C           6.9635   41.4306   11.3062 C.3     1  UNL1        0.0922
     12 C           8.6663   41.4845    9.4737 C.3     1  UNL1        0.0997
     13 N           7.3568   41.8910    9.9759 N.pl3   1  UNL1       -0.2916
     14 C           6.5031   42.7394    9.1914 C.ar    1  UNL1        0.1511
     15 C           4.3650   43.7008    8.8123 C.ar    1  UNL1        0.1210
     16 C           4.8586   44.3642    7.6887 C.ar    1  UNL1        0.1196
     17 C           6.9925   43.4088    8.0611 C.ar    1  UNL1        0.1331
     18 N           5.1956   42.9056    9.5366 N.ar    1  UNL1       -0.2259
     19 N           6.1612   44.2039    7.3376 N.ar    1  UNL1       -0.2378
     20 N          13.2258   41.7217    7.0911 N.pl3   1  UNL1       -0.2833
     21 H          12.8477   41.2388    6.3210 H       1  UNL1        0.1550
     22 C          14.1672   42.7605    6.7888 C.ar    1  UNL1        0.1332
     23 C          15.4726   42.6536    7.2762 C.ar    1  UNL1        0.0345
     24 C          16.3978   43.6586    6.9883 C.ar    1  UNL1        0.0045
     25 C          16.0135   44.7577    6.2192 C.ar    1  UNL1        0.0208
     26 C          14.7014   44.8329    5.7482 C.ar    1  UNL1        0.1003
     27 N          13.8150   43.8431    6.0397 N.ar    1  UNL1       -0.2290
@<TRIPOS>BOND
     1     1     2    1
     2     2     7   ar
     3     3     4   ar
     4     4    20    1
     5     5     6   ar
     6     8     5    1
     7     8     9    1
     8     9    10    1
     9    10    11    1
    10    11    13    1
    11    12    13    1
    12    12     8    1
    13    15    18   ar
    14    16    19   ar
    15    17    14   ar
    16    22    27   ar
    17    23    24   ar
    18    25    26   ar
    19    13    14    1
    20    20    22    1
    21     2     3   ar
    22     4     6   ar
    23     5     7   ar
    24    14    18   ar
    25    15    16   ar
    26    17    19   ar
    27    22    23   ar
    28    24    25   ar
    29    26    27   ar
    30    20    21    1
@<TRIPOS>MOLECULE
MolPort-020-278-625 MCULE-3634150499 PubChem-110255497
 27 30 0 0 0
SMALL
GASTEIGER

@<TRIPOS>ATOM
      1 C           9.2678   41.0281   13.8461 C.3     1  UNL1        0.0522
      2 C           9.1588   41.2611   12.3828 C.ar    1  UNL1        0.0635
      3 C           8.0262   41.8797   11.8581 C.ar    1  UNL1        0.0492
      4 C           7.9512   42.0863   10.4763 C.ar    1  UNL1        0.1357
      5 C          10.0801   41.0771   10.2136 C.ar    1  UNL1        0.1414
      6 N           8.9811   41.6797    9.6876 N.ar    1  UNL1       -0.2159
      7 N          10.1631   40.8717   11.5563 N.ar    1  UNL1       -0.2348
      8 C          11.1877   40.6490    9.3095 C.3     1  UNL1        0.0784
      9 C          11.5572   39.1860    9.5622 C.3     1  UNL1        0.0110
     10 C          12.6897   38.7550    8.6328 C.3     1  UNL1        0.0220
     11 C          13.9046   39.6545    8.8400 C.3     1  UNL1        0.0922
     12 C          12.4082   41.5511    9.4913 C.3     1  UNL1        0.0997
     13 N          13.5095   41.0518    8.6727 N.pl3   1  UNL1       -0.2916
     14 C          14.1574   41.9067    7.7172 C.ar    1  UNL1        0.1511
     15 C          16.1201   43.0065    6.9571 C.ar    1  UNL1        0.1210
     16 C          15.4066   43.5490    5.8881 C.ar    1  UNL1        0.1196
     17 C          13.4463   42.4554    6.6408 C.ar    1  UNL1        0.1331
     18 N          15.4819   42.1998    7.8452 N.ar    1  UNL1       -0.2259
     19 N          14.0855   43.2618    5.7533 N.ar    1  UNL1       -0.2378
     20 N           6.8170   42.7164    9.8640 N.pl3   1  UNL1       -0.2833
     21 H           6.9849   43.5790    9.4201 H       1  UNL1        0.1550
     22 C           5.4669   42.2344    9.8240 C.ar    1  UNL1        0.1332
     23 C           4.4655   43.0678    9.3181 C.ar    1  UNL1        0.0345
     24 C           3.1477   42.6094    9.2741 C.ar    1  UNL1        0.0045
     25 C           2.8416   41.3279    9.7337 C.ar    1  UNL1        0.0208
     26 C           3.8662   40.5216   10.2328 C.ar    1  UNL1        0.1003
     27 N           5.1440   40.9868   10.2671 N.ar    1  UNL1       -0.2290
@<TRIPOS>BOND
     1     1     2    1
     2     2     7   ar
     3     3     4   ar
     4     4    20    1
     5     5     6   ar
     6     8     5    1
     7     8     9    1
     8     9    10    1
     9    10    11    1
    10    11    13    1
    11    12    13    1
    12    12     8    1
    13    15    18   ar
    14    16    19   ar
    15    17    14   ar
    16    22    27   ar
    17    23    24   ar
    18    25    26   ar
    19    13    14    1
    20    20    22    1
    21     2     3   ar
    22     4     6   ar
    23     5     7   ar
    24    14    18   ar
    25    15    16   ar
    26    17    19   ar
    27    22    23   ar
    28    24    25   ar
    29    26    27   ar
    30    20    21    1
@<TRIPOS>MOLECULE
MolPort-020-278-625 MCULE-3634150499 PubChem-110255497
 27 30 0 0 0
SMALL
GASTEIGER

@<TRIPOS>ATOM
      1 C           9.0212   41.1060   14.2741 C.3     1  UNL1        0.0522
      2 C           9.1007   41.3729   12.8147 C.ar    1  UNL1        0.0635
      3 C           8.0135   41.9345   12.1487 C.ar    1  UNL1        0.0492
      4 C           8.1171   42.1750   10.7743 C.ar    1  UNL1        0.1357
      5 C          10.3233   41.3076   10.7925 C.ar    1  UNL1        0.1414
      6 N           9.2706   41.8554   10.1297 N.ar    1  UNL1       -0.2159
      7 N          10.2330   41.0701   12.1295 N.ar    1  UNL1       -0.2348
      8 C          11.5709   40.9747   10.0441 C.3     1  UNL1        0.0784
      9 C          11.3646   41.1598    8.5394 C.3     1  UNL1        0.0110
     10 C          12.6454   40.8187    7.7809 C.3     1  UNL1        0.0220
     11 C          13.0667   39.3848    8.0881 C.3     1  UNL1        0.0922
     12 C          12.0177   39.5461   10.3540 C.3     1  UNL1        0.0997
     13 N          13.1791   39.2103    9.5349 N.pl3   1  UNL1       -0.2916
     14 C          14.3964   38.7514   10.1443 C.ar    1  UNL1        0.1511
     15 C          16.5620   37.8020    9.9249 C.ar    1  UNL1        0.1210
     16 C          16.7344   37.8665   11.3077 C.ar    1  UNL1        0.1196
     17 C          14.5761   38.8131   11.5333 C.ar    1  UNL1        0.1331
     18 N          15.4005   38.2445    9.3754 N.ar    1  UNL1       -0.2259
     19 N          15.7380   38.3705   12.0817 N.ar    1  UNL1       -0.2378
     20 N           7.0398   42.7505   10.0216 N.pl3   1  UNL1       -0.2833
     21 H           7.2561   43.5548    9.4967 H       1  UNL1        0.1550
     22 C           5.6841   42.2890    9.9458 C.ar    1  UNL1        0.1332
     23 C           5.3687   41.0283   10.4598 C.ar    1  UNL1        0.0345
     24 C           4.0523   40.5684   10.3918 C.ar    1  UNL1        0.0045
     25 C           3.0656   41.3680    9.8136 C.ar    1  UNL1        0.0208
     26 C           3.4152   42.6222    9.3099 C.ar    1  UNL1        0.1003
     27 N           4.7035   43.0521    9.3858 N.ar    1  UNL1       -0.2290
@<TRIPOS>BOND
     1     1     2    1
     2     2     7   ar
     3     3     4   ar
     4     4    20    1
     5     5     6   ar
     6     8     5    1
     7     8     9    1
     8     9    10    1
     9    10    11    1
    10    11    13    1
    11    12    13    1
    12    12     8    1
    13    15    18   ar
    14    16    19   ar
    15    17    14   ar
    16    22    27   ar
    17    23    24   ar
    18    25    26   ar
    19    13    14    1
    20    20    22    1
    21     2     3   ar
    22     4     6   ar
    23     5     7   ar
    24    14    18   ar
    25    15    16   ar
    26    17    19   ar
    27    22    23   ar
    28    24    25   ar
    29    26    27   ar
    30    20    21    1
@<TRIPOS>MOLECULE
MolPort-020-278-625 MCULE-3634150499 PubChem-110255497
 27 30 0 0 0
SMALL
GASTEIGER

@<TRIPOS>ATOM
      1 C           9.2352   38.8060    3.4147 C.3     1  UNL1        0.0522
      2 C           9.4798   39.4536    4.7293 C.ar    1  UNL1        0.0635
      3 C           8.4105   39.9519    5.4704 C.ar    1  UNL1        0.0492
      4 C           8.6709   40.5566    6.7050 C.ar    1  UNL1        0.1357
      5 C          10.9878   40.1501    6.4113 C.ar    1  UNL1        0.1414
      6 N           9.9543   40.6405    7.1453 N.ar    1  UNL1       -0.2159
      7 N          10.7454   39.5599    5.2092 N.ar    1  UNL1       -0.2348
      8 C          12.3807   40.2628    6.9353 C.3     1  UNL1        0.0784
      9 C          12.5496   39.4277    8.2062 C.3     1  UNL1        0.0110
     10 C          13.9771   39.5469    8.7354 C.3     1  UNL1        0.0220
     11 C          14.3099   41.0100    9.0115 C.3     1  UNL1        0.0922
     12 C          12.7376   41.7251    7.2013 C.3     1  UNL1        0.0997
     13 N          14.0642   41.8006    7.8069 N.pl3   1  UNL1       -0.2916
     14 C          15.0949   42.6063    7.2135 C.ar    1  UNL1        0.1511
     15 C          17.3439   43.3689    7.2039 C.ar    1  UNL1        0.1210
     16 C          17.0773   44.1525    6.0810 C.ar    1  UNL1        0.1196
     17 C          14.8337   43.3963    6.0852 C.ar    1  UNL1        0.1331
     18 N          16.3501   42.6154    7.7436 N.ar    1  UNL1       -0.2259
     19 N          15.8283   44.1492    5.5462 N.ar    1  UNL1       -0.2378
     20 N           7.6215   41.0923    7.5236 N.pl3   1  UNL1       -0.2833
     21 H           6.7938   41.3503    7.0571 H       1  UNL1        0.1550
     22 C           7.6395   41.2954    8.9432 C.ar    1  UNL1        0.1332
     23 C           6.4266   41.3372    9.6362 C.ar    1  UNL1        0.0345
     24 C           6.4315   41.5342   11.0182 C.ar    1  UNL1        0.0045
     25 C           7.6426   41.6872   11.6943 C.ar    1  UNL1        0.0208
     26 C           8.8359   41.6401   10.9712 C.ar    1  UNL1        0.1003
     27 N           8.8097   41.4472    9.6249 N.ar    1  UNL1       -0.2290
@<TRIPOS>BOND
     1     1     2    1
     2     2     7   ar
     3     3     4   ar
     4     4    20    1
     5     5     6   ar
     6     8     5    1
     7     8     9    1
     8     9    10    1
     9    10    11    1
    10    11    13    1
    11    12    13    1
    12    12     8    1
    13    15    18   ar
    14    16    19   ar
    15    17    14   ar
    16    22    27   ar
    17    23    24   ar
    18    25    26   ar
    19    13    14    1
    20    20    22    1
    21     2     3   ar
    22     4     6   ar
    23     5     7   ar
    24    14    18   ar
    25    15    16   ar
    26    17    19   ar
    27    22    23   ar
    28    24    25   ar
    29    26    27   ar
    30    20    21    1
@<TRIPOS>MOLECULE
MolPort-020-278-625 MCULE-3634150499 PubChem-110255497
 27 30 0 0 0
SMALL
GASTEIGER

@<TRIPOS>ATOM
      1 C          10.2998   39.4524    3.4997 C.3     1  UNL1        0.0522
      2 C          10.2560   40.2741    4.7367 C.ar    1  UNL1        0.0635
      3 C          11.4358   40.5840    5.4096 C.ar    1  UNL1        0.0492
      4 C          11.3640   41.3598    6.5718 C.ar    1  UNL1        0.1357
      5 C           9.0074   41.4774    6.3434 C.ar    1  UNL1        0.1414
      6 N          10.1504   41.7878    7.0102 N.ar    1  UNL1       -0.2159
      7 N           9.0662   40.7237    5.2118 N.ar    1  UNL1       -0.2348
      8 C           7.6972   41.9708    6.8605 C.3     1  UNL1        0.0784
      9 C           7.4192   43.3904    6.3624 C.3     1  UNL1        0.0110
     10 C           6.0768   43.8876    6.8943 C.3     1  UNL1        0.0220
     11 C           6.0740   43.8484    8.4195 C.3     1  UNL1        0.0922
     12 C           7.6702   41.9219    8.3881 C.3     1  UNL1        0.0997
     13 N           6.4209   42.5026    8.8722 N.pl3   1  UNL1       -0.2916
     14 C           5.5551   41.7557    9.7418 C.ar    1  UNL1        0.1511
     15 C           3.4805   40.6624   10.1160 C.ar    1  UNL1        0.1210
     16 C           3.8875   40.3239   11.4067 C.ar    1  UNL1        0.1196
     17 C           5.9577   41.4124   11.0401 C.ar    1  UNL1        0.1331
     18 N           4.3207   41.3684    9.3146 N.ar    1  UNL1       -0.2259
     19 N           5.1169   40.7062   11.8407 N.ar    1  UNL1       -0.2378
     20 N          12.5358   41.7189    7.3177 N.pl3   1  UNL1       -0.2833
     21 H          12.6111   41.3361    8.2216 H       1  UNL1        0.1550
     22 C          13.6101   42.5713    6.8982 C.ar    1  UNL1        0.1332
     23 C          14.9090   42.2835    7.3261 C.ar    1  UNL1        0.0345
     24 C          15.9628   43.1060    6.9241 C.ar    1  UNL1        0.0045
     25 C          15.7121   44.2048    6.1012 C.ar    1  UNL1        0.0208
     26 C          14.4027   44.4635    5.6921 C.ar    1  UNL1        0.1003
     27 N          13.3897   43.6499    6.0948 N.ar    1  UNL1       -0.2290
@<TRIPOS>BOND
     1     1     2    1
     2     2     7   ar
     3     3     4   ar
     4     4    20    1
     5     5     6   ar
     6     8     5    1
     7     8     9    1
     8     9    10    1
     9    10    11    1
    10    11    13    1
    11    12    13    1
    12    12     8    1
    13    15    18   ar
    14    16    19   ar
    15    17    14   ar
    16    22    27   ar
    17    23    24   ar
    18    25    26   ar
    19    13    14    1
    20    20    22    1
    21     2     3   ar
    22     4     6   ar
    23     5     7   ar
    24    14    18   ar
    25    15    16   ar
    26    17    19   ar
    27    22    23   ar
    28    24    25   ar
    29    26    27   ar
    30    20    21    1
@<TRIPOS>MOLECULE
MolPort-020-278-625 MCULE-3634150499 PubChem-110255497
 27 30 0 0 0
SMALL
GASTEIGER

@<TRIPOS>ATOM
      1 C          13.2065   39.5511   11.3628 C.3     1  UNL1        0.0522
      2 C          12.7435   40.0823   10.0548 C.ar    1  UNL1        0.0635
      3 C          13.6452   40.7130    9.2003 C.ar    1  UNL1        0.0492
      4 C          13.1809   41.2033    7.9748 C.ar    1  UNL1        0.1357
      5 C          11.0003   40.4339    8.4973 C.ar    1  UNL1        0.1414
      6 N          11.8687   41.0512    7.6533 N.ar    1  UNL1       -0.2159
      7 N          11.4418   39.9531    9.6915 N.ar    1  UNL1       -0.2348
      8 C           9.5687   40.2876    8.1017 C.3     1  UNL1        0.0784
      9 C           9.4386   39.4064    6.8577 C.3     1  UNL1        0.0110
     10 C           7.9714   39.2604    6.4601 C.3     1  UNL1        0.0220
     11 C           7.3616   40.6355    6.2047 C.3     1  UNL1        0.0922
     12 C           8.9363   41.6579    7.8586 C.3     1  UNL1        0.0997
     13 N           7.5690   41.4848    7.3760 N.pl3   1  UNL1       -0.2916
     14 C           6.4684   42.1105    8.0551 C.ar    1  UNL1        0.1511
     15 C           4.4704   41.9153    9.3236 C.ar    1  UNL1        0.1210
     16 C           4.3522   43.3050    9.3581 C.ar    1  UNL1        0.1196
     17 C           6.3435   43.5063    8.0934 C.ar    1  UNL1        0.1331
     18 N           5.5225   41.3506    8.6750 N.ar    1  UNL1       -0.2259
     19 N           5.2910   44.0701    8.7424 N.ar    1  UNL1       -0.2378
     20 N          14.0499   41.8637    7.0437 N.pl3   1  UNL1       -0.2833
     21 H          13.7740   41.8409    6.0989 H       1  UNL1        0.1550
     22 C          15.2742   42.5532    7.3308 C.ar    1  UNL1        0.1332
     23 C          16.1854   41.9734    8.2177 C.ar    1  UNL1        0.0345
     24 C          17.3806   42.6352    8.5048 C.ar    1  UNL1        0.0045
     25 C          17.6551   43.8655    7.9064 C.ar    1  UNL1        0.0208
     26 C          16.7229   44.4162    7.0251 C.ar    1  UNL1        0.1003
     27 N          15.5641   43.7555    6.7584 N.ar    1  UNL1       -0.2290
@<TRIPOS>BOND
     1     1     2    1
     2     2     7   ar
     3     3     4   ar
     4     4    20    1
     5     5     6   ar
     6     8     5    1
     7     8     9    1
     8     9    10    1
     9    10    11    1
    10    11    13    1
    11    12    13    1
    12    12     8    1
    13    15    18   ar
    14    16    19   ar
    15    17    14   ar
    16    22    27   ar
    17    23    24   ar
    18    25    26   ar
    19    13    14    1
    20    20    22    1
    21     2     3   ar
    22     4     6   ar
    23     5     7   ar
    24    14    18   ar
    25    15    16   ar
    26    17    19   ar
    27    22    23   ar
    28    24    25   ar
    29    26    27   ar
    30    20    21    1
@<TRIPOS>MOLECULE
MolPort-020-278-625 MCULE-3634150499 PubChem-110255497
 27 30 0 0 0
SMALL
GASTEIGER

@<TRIPOS>ATOM
      1 C          12.1517   35.4135   10.6256 C.3     1  UNL1        0.0522
      2 C          12.2205   36.7944   10.0819 C.ar    1  UNL1        0.0635
      3 C          11.0480   37.5031    9.8290 C.ar    1  UNL1        0.0492
      4 C          11.1435   38.8018    9.3172 C.ar    1  UNL1        0.1357
      5 C          13.5079   38.6303    9.3333 C.ar    1  UNL1        0.1414
      6 N          12.3723   39.3338    9.0820 N.ar    1  UNL1       -0.2159
      7 N          13.4261   37.3665    9.8315 N.ar    1  UNL1       -0.2348
      8 C          14.8356   39.2555    9.0615 C.3     1  UNL1        0.0784
      9 C          15.8772   38.7744   10.0735 C.3     1  UNL1        0.0110
     10 C          17.2328   39.4171    9.7882 C.3     1  UNL1        0.0220
     11 C          17.1086   40.9371    9.8337 C.3     1  UNL1        0.0922
     12 C          14.7261   40.7800    9.0858 C.3     1  UNL1        0.0997
     13 N          16.0529   41.3665    8.9186 N.pl3   1  UNL1       -0.2916
     14 C          16.3079   42.3123    7.8677 C.ar    1  UNL1        0.1511
     15 C          17.8463   43.6456    6.6449 C.ar    1  UNL1        0.1210
     16 C          16.8039   44.1294    5.8539 C.ar    1  UNL1        0.1196
     17 C          15.2650   42.8026    7.0693 C.ar    1  UNL1        0.1331
     18 N          17.5761   42.7505    7.6311 N.ar    1  UNL1       -0.2259
     19 N          15.5363   43.6975    6.0833 N.ar    1  UNL1       -0.2378
     20 N           9.9806   39.5922    9.0321 N.pl3   1  UNL1       -0.2833
     21 H           9.2431   39.1313    8.5707 H       1  UNL1        0.1550
     22 C           9.7689   40.9763    9.3420 C.ar    1  UNL1        0.1332
     23 C          10.7999   41.6996    9.9479 C.ar    1  UNL1        0.0345
     24 C          10.6055   43.0476   10.2541 C.ar    1  UNL1        0.0045
     25 C           9.3880   43.6601    9.9540 C.ar    1  UNL1        0.0208
     26 C           8.3794   42.9083    9.3487 C.ar    1  UNL1        0.1003
     27 N           8.5887   41.5960    9.0583 N.ar    1  UNL1       -0.2290
@<TRIPOS>BOND
     1     1     2    1
     2     2     7   ar
     3     3     4   ar
     4     4    20    1
     5     5     6   ar
     6     8     5    1
     7     8     9    1
     8     9    10    1
     9    10    11    1
    10    11    13    1
    11    12    13    1
    12    12     8    1
    13    15    18   ar
    14    16    19   ar
    15    17    14   ar
    16    22    27   ar
    17    23    24   ar
    18    25    26   ar
    19    13    14    1
    20    20    22    1
    21     2     3   ar
    22     4     6   ar
    23     5     7   ar
    24    14    18   ar
    25    15    16   ar
    26    17    19   ar
    27    22    23   ar
    28    24    25   ar
    29    26    27   ar
    30    20    21    1
