@<TRIPOS>MOLECULE
MolPort-007-713-548 ChemDiv-E002-0459 MCULE-5755976766 PubChem-22509990 ZINC000006768187
 28 30 0 0 0
SMALL
GASTEIGER

@<TRIPOS>ATOM
      1 C           8.0439   41.5156    9.2272 C.ar    1  UNL1        0.1905
      2 C           9.7436   41.6601    7.5425 C.ar    1  UNL1        0.1904
      3 N           8.0322   40.4740    8.3628 N.ar    1  UNL1       -0.1239
      4 N           8.9806   40.5504    7.4309 N.ar    1  UNL1       -0.1240
      5 S           9.2597   42.6235    8.8326 S.2     1  UNL1       -0.0151
      6 C          12.1074   42.4660    7.0842 C.2     1  UNL1        0.3096
      7 N          10.8258   41.9867    6.6655 N.am    1  UNL1       -0.2468
      8 N          13.0970   42.7510    6.0874 N.am    1  UNL1       -0.2679
      9 O          12.3580   42.6340    8.3083 O.2     1  UNL1       -0.2521
     10 H          10.6772   41.8728    5.6989 H       1  UNL1        0.1584
     11 H          12.8354   42.5981    5.1507 H       1  UNL1        0.1564
     12 C          14.4283   43.2353    6.3111 C.ar    1  UNL1        0.0546
     13 C          14.8388   44.4021    5.6583 C.ar    1  UNL1        0.0149
     14 C          16.1285   44.9046    5.8515 C.ar    1  UNL1        0.0044
     15 C          17.0177   44.2412    6.7010 C.ar    1  UNL1        0.0370
     16 C          16.6237   43.0735    7.3614 C.ar    1  UNL1        0.1400
     17 C          15.3263   42.5745    7.1627 C.ar    1  UNL1        0.0516
     18 C          17.1529   41.3986    9.1025 C.3     1  UNL1        0.2525
     19 O          17.5348   42.4320    8.2049 O.3     1  UNL1       -0.4714
     20 N           7.0726   41.6749   10.2791 N.pl3   1  UNL1       -0.2659
     21 C           5.6535   41.7248   10.0269 C.ar    1  UNL1        0.0531
     22 C           5.0817   42.8009    9.3286 C.ar    1  UNL1        0.0149
     23 C           3.7019   42.8563    9.1126 C.ar    1  UNL1        0.0013
     24 C           2.8775   41.8396    9.6001 C.ar    1  UNL1        0.0001
     25 C           3.4321   40.7697   10.3065 C.ar    1  UNL1        0.0013
     26 C           4.8121   40.7149   10.5222 C.ar    1  UNL1        0.0149
     27 C           7.5551   41.8249   11.6493 C.3     1  UNL1        0.0975
     28 C           8.8937   41.1284   11.8091 C.3     1  UNL1        0.0236
@<TRIPOS>BOND
     1     1    20    1
     2     1     5   ar
     3    27    20    1
     4    27    28    1
     5    22    23   ar
     6    24    25   ar
     7    26    21   ar
     8     2     7    1
     9     2     5   ar
    10     6     8   am
    11    13    14   ar
    12    15    16   ar
    13    16    19    1
    14    18    19    1
    15    17    12   ar
    16    20    21    1
    17     3     4   ar
    18     7     6   am
    19     8    12    1
    20     1     3   ar
    21    21    22   ar
    22    23    24   ar
    23    25    26   ar
    24     2     4   ar
    25     6     9    2
    26    12    13   ar
    27    14    15   ar
    28    16    17   ar
    29     7    10    1
    30     8    11    1
@<TRIPOS>MOLECULE
MolPort-007-713-548 ChemDiv-E002-0459 MCULE-5755976766 PubChem-22509990 ZINC000006768187
 28 30 0 0 0
SMALL
GASTEIGER

@<TRIPOS>ATOM
      1 C          12.5650   42.1365    7.1354 C.ar    1  UNL1        0.1905
      2 C          10.5459   41.3248    8.1416 C.ar    1  UNL1        0.1904
      3 N          11.6809   41.6401    6.2387 N.ar    1  UNL1       -0.1239
      4 N          10.5562   41.1954    6.7965 N.ar    1  UNL1       -0.1240
      5 S          11.9706   42.0097    8.7140 S.2     1  UNL1       -0.0151
      6 C           8.1931   41.5765    9.0626 C.2     1  UNL1        0.3096
      7 N           9.4618   40.9195    8.9828 N.am    1  UNL1       -0.2468
      8 N           7.1998   41.0530    9.9533 N.am    1  UNL1       -0.2679
      9 O           7.9569   42.5971    8.3613 O.2     1  UNL1       -0.2521
     10 H           9.5994   40.1272    9.5508 H       1  UNL1        0.1584
     11 H           7.4499   40.2542   10.4716 H       1  UNL1        0.1564
     12 C           5.8797   41.5705   10.1690 C.ar    1  UNL1        0.0546
     13 C           5.1608   41.1365   11.2875 C.ar    1  UNL1        0.0149
     14 C           3.8718   41.6186   11.5308 C.ar    1  UNL1        0.0044
     15 C           3.2926   42.5400   10.6545 C.ar    1  UNL1        0.0370
     16 C           3.9972   42.9845    9.5317 C.ar    1  UNL1        0.1400
     17 C           5.2920   42.4960    9.2936 C.ar    1  UNL1        0.0516
     18 C           4.1379   44.7759    7.8323 C.3     1  UNL1        0.2525
     19 O           3.3920   43.9064    8.6732 O.3     1  UNL1       -0.4714
     20 N          13.8723   42.6168    6.7670 N.pl3   1  UNL1       -0.2659
     21 C          15.0562   42.3165    7.5339 C.ar    1  UNL1        0.0531
     22 C          16.2324   43.0663    7.3695 C.ar    1  UNL1        0.0149
     23 C          17.3843   42.7514    8.0957 C.ar    1  UNL1        0.0013
     24 C          17.3750   41.6773    8.9886 C.ar    1  UNL1        0.0001
     25 C          16.2153   40.9161    9.1527 C.ar    1  UNL1        0.0013
     26 C          15.0635   41.2316    8.4262 C.ar    1  UNL1        0.0149
     27 C          13.9888   43.4692    5.5870 C.3     1  UNL1        0.0975
     28 C          14.4853   44.8464    5.9865 C.3     1  UNL1        0.0236
@<TRIPOS>BOND
     1     1    20    1
     2     1     5   ar
     3    27    20    1
     4    27    28    1
     5    22    23   ar
     6    24    25   ar
     7    26    21   ar
     8     2     7    1
     9     2     5   ar
    10     6     8   am
    11    13    14   ar
    12    15    16   ar
    13    16    19    1
    14    18    19    1
    15    17    12   ar
    16    20    21    1
    17     3     4   ar
    18     7     6   am
    19     8    12    1
    20     1     3   ar
    21    21    22   ar
    22    23    24   ar
    23    25    26   ar
    24     2     4   ar
    25     6     9    2
    26    12    13   ar
    27    14    15   ar
    28    16    17   ar
    29     7    10    1
    30     8    11    1
@<TRIPOS>MOLECULE
MolPort-007-713-548 ChemDiv-E002-0459 MCULE-5755976766 PubChem-22509990 ZINC000006768187
 28 30 0 0 0
SMALL
GASTEIGER

@<TRIPOS>ATOM
      1 C           9.3087   41.2422   10.0247 C.ar    1  UNL1        0.1905
      2 C          11.6124   40.6296    9.7681 C.ar    1  UNL1        0.1904
      3 N           9.5743   39.9757   10.4218 N.ar    1  UNL1       -0.1239
      4 N          10.8553   39.6373   10.2858 N.ar    1  UNL1       -0.1240
      5 S          10.7019   42.0050    9.4426 S.2     1  UNL1       -0.0151
      6 C          13.8121   41.5226    8.8673 C.2     1  UNL1        0.3096
      7 N          13.0167   40.5247    9.5147 N.am    1  UNL1       -0.2468
      8 N          15.2120   41.2769    8.6833 N.am    1  UNL1       -0.2679
      9 O          13.2878   42.5969    8.4669 O.2     1  UNL1       -0.2521
     10 H          13.4709   39.7021    9.8085 H       1  UNL1        0.1584
     11 H          15.5563   40.4179    9.0192 H       1  UNL1        0.1564
     12 C          16.1641   42.1509    8.0613 C.ar    1  UNL1        0.0546
     13 C          17.5269   41.9314    8.2865 C.ar    1  UNL1        0.0149
     14 C          18.4840   42.7620    7.6974 C.ar    1  UNL1        0.0044
     15 C          18.0828   43.8199    6.8776 C.ar    1  UNL1        0.0370
     16 C          16.7246   44.0536    6.6419 C.ar    1  UNL1        0.1400
     17 C          15.7684   43.2149    7.2369 C.ar    1  UNL1        0.0516
     18 C          14.9966   45.4540    5.5605 C.3     1  UNL1        0.2525
     19 O          16.3535   45.1192    5.8174 O.3     1  UNL1       -0.4714
     20 N           7.9822   41.8039   10.0244 N.pl3   1  UNL1       -0.2659
     21 C           7.4080   42.4428    8.8660 C.ar    1  UNL1        0.0531
     22 C           7.3604   41.7833    7.6269 C.ar    1  UNL1        0.0149
     23 C           6.8281   42.4197    6.5021 C.ar    1  UNL1        0.0013
     24 C           6.3448   43.7263    6.6024 C.ar    1  UNL1        0.0001
     25 C           6.3971   44.3978    7.8261 C.ar    1  UNL1        0.0013
     26 C           6.9295   43.7609    8.9508 C.ar    1  UNL1        0.0149
     27 C           7.2076   41.7494   11.2612 C.3     1  UNL1        0.0975
     28 C           5.8304   41.1737   10.9882 C.3     1  UNL1        0.0236
@<TRIPOS>BOND
     1     1    20    1
     2     1     5   ar
     3    27    20    1
     4    27    28    1
     5    22    23   ar
     6    24    25   ar
     7    26    21   ar
     8     2     7    1
     9     2     5   ar
    10     6     8   am
    11    13    14   ar
    12    15    16   ar
    13    16    19    1
    14    18    19    1
    15    17    12   ar
    16    20    21    1
    17     3     4   ar
    18     7     6   am
    19     8    12    1
    20     1     3   ar
    21    21    22   ar
    22    23    24   ar
    23    25    26   ar
    24     2     4   ar
    25     6     9    2
    26    12    13   ar
    27    14    15   ar
    28    16    17   ar
    29     7    10    1
    30     8    11    1
@<TRIPOS>MOLECULE
MolPort-007-713-548 ChemDiv-E002-0459 MCULE-5755976766 PubChem-22509990 ZINC000006768187
 28 30 0 0 0
SMALL
GASTEIGER

@<TRIPOS>ATOM
      1 C           6.9436   42.4151    7.6360 C.ar    1  UNL1        0.1905
      2 C           9.0691   41.9908    6.6112 C.ar    1  UNL1        0.1904
      3 N           6.8485   41.7597    6.4555 N.ar    1  UNL1       -0.1239
      4 N           8.0295   41.5176    5.8892 N.ar    1  UNL1       -0.1240
      5 S           8.5561   42.7548    8.0182 S.2     1  UNL1       -0.0151
      6 C          11.5526   41.8706    7.1263 C.2     1  UNL1        0.3096
      7 N          10.4414   41.8694    6.2247 N.am    1  UNL1       -0.2468
      8 N          12.8755   41.7390    6.5911 N.am    1  UNL1       -0.2679
      9 O          11.3678   41.9861    8.3680 O.2     1  UNL1       -0.2521
     10 H          10.6362   41.7779    5.2640 H       1  UNL1        0.1584
     11 H          12.9485   41.6532    5.6130 H       1  UNL1        0.1564
     12 C          14.1044   41.7191    7.3305 C.ar    1  UNL1        0.0546
     13 C          15.0628   42.7038    7.0701 C.ar    1  UNL1        0.0149
     14 C          16.2720   42.7169    7.7706 C.ar    1  UNL1        0.0044
     15 C          16.5306   41.7426    8.7381 C.ar    1  UNL1        0.0370
     16 C          15.5835   40.7509    9.0110 C.ar    1  UNL1        0.1400
     17 C          14.3706   40.7440    8.3035 C.ar    1  UNL1        0.0516
     18 C          17.1371   39.6967   10.6209 C.3     1  UNL1        0.2525
     19 O          15.8700   39.7897    9.9842 O.3     1  UNL1       -0.4714
     20 N           5.7946   42.8357    8.3963 N.pl3   1  UNL1       -0.2659
     21 C           5.1728   41.9996    9.3934 C.ar    1  UNL1        0.0531
     22 C           5.7655   41.8160   10.6534 C.ar    1  UNL1        0.0149
     23 C           5.1715   40.9818   11.6045 C.ar    1  UNL1        0.0013
     24 C           3.9817   40.3151   11.3027 C.ar    1  UNL1        0.0001
     25 C           3.3881   40.4796   10.0490 C.ar    1  UNL1        0.0013
     26 C           3.9826   41.3142    9.0983 C.ar    1  UNL1        0.0149
     27 C           5.2226   44.1497    8.1157 C.3     1  UNL1        0.0975
     28 C           3.7654   44.1842    8.5375 C.3     1  UNL1        0.0236
@<TRIPOS>BOND
     1     1    20    1
     2     1     5   ar
     3    27    20    1
     4    27    28    1
     5    22    23   ar
     6    24    25   ar
     7    26    21   ar
     8     2     7    1
     9     2     5   ar
    10     6     8   am
    11    13    14   ar
    12    15    16   ar
    13    16    19    1
    14    18    19    1
    15    17    12   ar
    16    20    21    1
    17     3     4   ar
    18     7     6   am
    19     8    12    1
    20     1     3   ar
    21    21    22   ar
    22    23    24   ar
    23    25    26   ar
    24     2     4   ar
    25     6     9    2
    26    12    13   ar
    27    14    15   ar
    28    16    17   ar
    29     7    10    1
    30     8    11    1
@<TRIPOS>MOLECULE
MolPort-007-713-548 ChemDiv-E002-0459 MCULE-5755976766 PubChem-22509990 ZINC000006768187
 28 30 0 0 0
SMALL
GASTEIGER

@<TRIPOS>ATOM
      1 C          12.5549   40.8120    8.9323 C.ar    1  UNL1        0.1905
      2 C          10.4004   40.7076    9.9786 C.ar    1  UNL1        0.1904
      3 N          11.8474   39.7088    8.5939 N.ar    1  UNL1       -0.1239
      4 N          10.6476   39.6539    9.1696 N.ar    1  UNL1       -0.1240
      5 S          11.6947   41.7796   10.0210 S.2     1  UNL1       -0.0151
      6 C           7.8927   41.0695   10.1455 C.2     1  UNL1        0.3096
      7 N           9.1904   40.8887   10.7206 N.am    1  UNL1       -0.2468
      8 N           6.7686   41.2383   11.0184 N.am    1  UNL1       -0.2679
      9 O           7.7444   41.0800    8.8936 O.2     1  UNL1       -0.2521
     10 H           9.2559   40.8890   11.7029 H       1  UNL1        0.1584
     11 H           6.9548   41.2202   11.9849 H       1  UNL1        0.1564
     12 C           5.4008   41.4308   10.6318 C.ar    1  UNL1        0.0546
     13 C           4.9820   40.9621    9.3824 C.ar    1  UNL1        0.0149
     14 C           3.6571   41.1313    8.9712 C.ar    1  UNL1        0.0044
     15 C           2.7409   41.7720    9.8093 C.ar    1  UNL1        0.0370
     16 C           3.1427   42.2467   11.0615 C.ar    1  UNL1        0.1400
     17 C           4.4755   42.0730   11.4682 C.ar    1  UNL1        0.0516
     18 C           1.2357   42.1696   12.6344 C.3     1  UNL1        0.2525
     19 O           2.2040   42.8834   11.8779 O.3     1  UNL1       -0.4714
     20 N          13.9009   41.0523    8.4783 N.pl3   1  UNL1       -0.2659
     21 C          14.2197   42.0405    7.4775 C.ar    1  UNL1        0.0531
     22 C          13.2718   42.4257    6.5153 C.ar    1  UNL1        0.0149
     23 C          13.5974   43.3632    5.5313 C.ar    1  UNL1        0.0013
     24 C          14.8778   43.9200    5.4935 C.ar    1  UNL1        0.0001
     25 C          15.8336   43.5367    6.4373 C.ar    1  UNL1        0.0013
     26 C          15.5075   42.5991    7.4214 C.ar    1  UNL1        0.0149
     27 C          14.9750   40.2345    9.0350 C.3     1  UNL1        0.0975
     28 C          14.5615   39.6814   10.3862 C.3     1  UNL1        0.0236
@<TRIPOS>BOND
     1     1    20    1
     2     1     5   ar
     3    27    20    1
     4    27    28    1
     5    22    23   ar
     6    24    25   ar
     7    26    21   ar
     8     2     7    1
     9     2     5   ar
    10     6     8   am
    11    13    14   ar
    12    15    16   ar
    13    16    19    1
    14    18    19    1
    15    17    12   ar
    16    20    21    1
    17     3     4   ar
    18     7     6   am
    19     8    12    1
    20     1     3   ar
    21    21    22   ar
    22    23    24   ar
    23    25    26   ar
    24     2     4   ar
    25     6     9    2
    26    12    13   ar
    27    14    15   ar
    28    16    17   ar
    29     7    10    1
    30     8    11    1
@<TRIPOS>MOLECULE
MolPort-007-713-548 ChemDiv-E002-0459 MCULE-5755976766 PubChem-22509990 ZINC000006768187
 28 30 0 0 0
SMALL
GASTEIGER

@<TRIPOS>ATOM
      1 C           7.0697   42.0261    8.4313 C.ar    1  UNL1        0.1905
      2 C           9.1552   41.1789    7.6062 C.ar    1  UNL1        0.1904
      3 N           6.9344   40.9108    7.6764 N.ar    1  UNL1       -0.1239
      4 N           8.0934   40.4358    7.2235 N.ar    1  UNL1       -0.1240
      5 S           8.6911   42.4952    8.5434 S.2     1  UNL1       -0.0151
      6 C          11.5661   41.8563    7.1865 C.2     1  UNL1        0.3096
      7 N          10.5110   40.8917    7.2505 N.am    1  UNL1       -0.2468
      8 N          12.8793   41.4189    6.8148 N.am    1  UNL1       -0.2679
      9 O          11.3410   43.0679    7.4523 O.2     1  UNL1       -0.2521
     10 H          10.7354   39.9582    7.0330 H       1  UNL1        0.1584
     11 H          12.9854   40.4597    6.6201 H       1  UNL1        0.1564
     12 C          14.0551   42.2316    6.6966 C.ar    1  UNL1        0.0546
     13 C          14.1238   43.1699    5.6617 C.ar    1  UNL1        0.0149
     14 C          15.2533   43.9797    5.5148 C.ar    1  UNL1        0.0044
     15 C          16.3235   43.8556    6.4044 C.ar    1  UNL1        0.0370
     16 C          16.2715   42.9228    7.4446 C.ar    1  UNL1        0.1400
     17 C          15.1334   42.1125    7.5863 C.ar    1  UNL1        0.0516
     18 C          17.7679   43.8911    9.1591 C.3     1  UNL1        0.2525
     19 O          17.3571   42.8214    8.3187 O.3     1  UNL1       -0.4714
     20 N           5.9479   42.7476    8.9757 N.pl3   1  UNL1       -0.2659
     21 C           5.0212   42.1560    9.9091 C.ar    1  UNL1        0.0531
     22 C           5.4368   41.1566   10.8040 C.ar    1  UNL1        0.0149
     23 C           4.5265   40.5681   11.6863 C.ar    1  UNL1        0.0013
     24 C           3.1879   40.9669   11.6773 C.ar    1  UNL1        0.0001
     25 C           2.7589   41.9514   10.7841 C.ar    1  UNL1        0.0013
     26 C           3.6698   42.5398    9.9020 C.ar    1  UNL1        0.0149
     27 C           5.7288   44.1219    8.5333 C.3     1  UNL1        0.0975
     28 C           5.7165   44.1852    7.0172 C.3     1  UNL1        0.0236
@<TRIPOS>BOND
     1     1    20    1
     2     1     5   ar
     3    27    20    1
     4    27    28    1
     5    22    23   ar
     6    24    25   ar
     7    26    21   ar
     8     2     7    1
     9     2     5   ar
    10     6     8   am
    11    13    14   ar
    12    15    16   ar
    13    16    19    1
    14    18    19    1
    15    17    12   ar
    16    20    21    1
    17     3     4   ar
    18     7     6   am
    19     8    12    1
    20     1     3   ar
    21    21    22   ar
    22    23    24   ar
    23    25    26   ar
    24     2     4   ar
    25     6     9    2
    26    12    13   ar
    27    14    15   ar
    28    16    17   ar
    29     7    10    1
    30     8    11    1
@<TRIPOS>MOLECULE
MolPort-007-713-548 ChemDiv-E002-0459 MCULE-5755976766 PubChem-22509990 ZINC000006768187
 28 30 0 0 0
SMALL
GASTEIGER

@<TRIPOS>ATOM
      1 C           7.6968   41.8028    8.6058 C.ar    1  UNL1        0.1905
      2 C           9.8365   40.7755    8.2683 C.ar    1  UNL1        0.1904
      3 N           7.6309   40.6416    7.9134 N.ar    1  UNL1       -0.1239
      4 N           8.8186   40.0670    7.7317 N.ar    1  UNL1       -0.1240
      5 S           9.2950   42.1854    9.0068 S.2     1  UNL1       -0.0151
      6 C          12.3233   41.2849    8.2065 C.2     1  UNL1        0.3096
      7 N          11.2115   40.3841    8.2085 N.am    1  UNL1       -0.2468
      8 N          13.6492   40.7444    8.1439 N.am    1  UNL1       -0.2679
      9 O          12.1364   42.5306    8.2585 O.2     1  UNL1       -0.2521
     10 H          11.4078   39.4203    8.1654 H       1  UNL1        0.1584
     11 H          13.7236   39.7635    8.1050 H       1  UNL1        0.1564
     12 C          14.8790   41.4823    8.1320 C.ar    1  UNL1        0.0546
     13 C          15.9318   41.0494    8.9447 C.ar    1  UNL1        0.0149
     14 C          17.1452   41.7426    8.9596 C.ar    1  UNL1        0.0044
     15 C          17.3132   42.8760    8.1599 C.ar    1  UNL1        0.0370
     16 C          16.2712   43.3225    7.3416 C.ar    1  UNL1        0.1400
     17 C          15.0548   42.6209    7.3315 C.ar    1  UNL1        0.0516
     18 C          15.4320   45.0431    5.7757 C.3     1  UNL1        0.2525
     19 O          16.4686   44.4590    6.5527 O.3     1  UNL1       -0.4714
     20 N           6.5453   42.6278    8.8683 N.pl3   1  UNL1       -0.2659
     21 C           5.4582   42.2001    9.7140 C.ar    1  UNL1        0.0531
     22 C           5.6451   41.1954   10.6775 C.ar    1  UNL1        0.0149
     23 C           4.5799   40.7664   11.4741 C.ar    1  UNL1        0.0013
     24 C           3.3133   41.3319   11.3099 C.ar    1  UNL1        0.0001
     25 C           3.1111   42.3236   10.3472 C.ar    1  UNL1        0.0013
     26 C           4.1769   42.7523    9.5508 C.ar    1  UNL1        0.0149
     27 C           6.4685   43.9345    8.2210 C.3     1  UNL1        0.0975
     28 C           6.4959   43.7709    6.7126 C.3     1  UNL1        0.0236
@<TRIPOS>BOND
     1     1    20    1
     2     1     5   ar
     3    27    20    1
     4    27    28    1
     5    22    23   ar
     6    24    25   ar
     7    26    21   ar
     8     2     7    1
     9     2     5   ar
    10     6     8   am
    11    13    14   ar
    12    15    16   ar
    13    16    19    1
    14    18    19    1
    15    17    12   ar
    16    20    21    1
    17     3     4   ar
    18     7     6   am
    19     8    12    1
    20     1     3   ar
    21    21    22   ar
    22    23    24   ar
    23    25    26   ar
    24     2     4   ar
    25     6     9    2
    26    12    13   ar
    27    14    15   ar
    28    16    17   ar
    29     7    10    1
    30     8    11    1
@<TRIPOS>MOLECULE
MolPort-007-713-548 ChemDiv-E002-0459 MCULE-5755976766 PubChem-22509990 ZINC000006768187
 28 30 0 0 0
SMALL
GASTEIGER

@<TRIPOS>ATOM
      1 C          13.0349   41.0032    7.8086 C.ar    1  UNL1        0.1905
      2 C          10.7892   41.4988    7.1311 C.ar    1  UNL1        0.1904
      3 N          12.4610   40.0115    7.0879 N.ar    1  UNL1       -0.1239
      4 N          11.2158   40.2893    6.7054 N.ar    1  UNL1       -0.1240
      5 S          11.9663   42.2960    8.0285 S.2     1  UNL1       -0.0151
      6 C           8.3709   41.9617    7.7515 C.2     1  UNL1        0.3096
      7 N           9.4905   42.0363    6.8634 N.am    1  UNL1       -0.2468
      8 N           7.1282   42.5493    7.3459 N.am    1  UNL1       -0.2679
      9 O           8.4789   41.3885    8.8691 O.2     1  UNL1       -0.2521
     10 H           9.3568   42.4928    6.0015 H       1  UNL1        0.1584
     11 H           7.1128   42.9805    6.4610 H       1  UNL1        0.1564
     12 C           5.9045   42.5751    8.0937 C.ar    1  UNL1        0.0546
     13 C           5.1681   43.7632    8.1391 C.ar    1  UNL1        0.0149
     14 C           3.9710   43.8266    8.8573 C.ar    1  UNL1        0.0044
     15 C           3.5020   42.6991    9.5363 C.ar    1  UNL1        0.0370
     16 C           4.2257   41.5033    9.5015 C.ar    1  UNL1        0.1400
     17 C           5.4276   41.4468    8.7777 C.ar    1  UNL1        0.0516
     18 C           3.9949   40.1643   11.5681 C.3     1  UNL1        0.2525
     19 O           3.7317   40.3921   10.1903 O.3     1  UNL1       -0.4714
     20 N          14.3539   40.8985    8.3785 N.pl3   1  UNL1       -0.2659
     21 C          15.4151   41.8213    8.0588 C.ar    1  UNL1        0.0531
     22 C          16.6333   41.7908    8.7572 C.ar    1  UNL1        0.0149
     23 C          17.6465   42.7067    8.4609 C.ar    1  UNL1        0.0013
     24 C          17.4493   43.6691    7.4680 C.ar    1  UNL1        0.0001
     25 C          16.2380   43.7180    6.7741 C.ar    1  UNL1        0.0013
     26 C          15.2250   42.8016    7.0708 C.ar    1  UNL1        0.0149
     27 C          14.6278   39.7906    9.2895 C.3     1  UNL1        0.0975
     28 C          13.8303   39.9595   10.5694 C.3     1  UNL1        0.0236
@<TRIPOS>BOND
     1     1    20    1
     2     1     5   ar
     3    27    20    1
     4    27    28    1
     5    22    23   ar
     6    24    25   ar
     7    26    21   ar
     8     2     7    1
     9     2     5   ar
    10     6     8   am
    11    13    14   ar
    12    15    16   ar
    13    16    19    1
    14    18    19    1
    15    17    12   ar
    16    20    21    1
    17     3     4   ar
    18     7     6   am
    19     8    12    1
    20     1     3   ar
    21    21    22   ar
    22    23    24   ar
    23    25    26   ar
    24     2     4   ar
    25     6     9    2
    26    12    13   ar
    27    14    15   ar
    28    16    17   ar
    29     7    10    1
    30     8    11    1
@<TRIPOS>MOLECULE
MolPort-007-713-548 ChemDiv-E002-0459 MCULE-5755976766 PubChem-22509990 ZINC000006768187
 28 30 0 0 0
SMALL
GASTEIGER

@<TRIPOS>ATOM
      1 C           7.6329   41.5235    8.4963 C.ar    1  UNL1        0.1905
      2 C           9.7318   41.3240    7.3548 C.ar    1  UNL1        0.1904
      3 N           7.7857   40.3399    7.8577 N.ar    1  UNL1       -0.1239
      4 N           8.9544   40.2258    7.2292 N.ar    1  UNL1       -0.1240
      5 S           8.9824   42.5182    8.2706 S.2     1  UNL1       -0.0151
      6 C          12.2131   41.8478    7.4809 C.2     1  UNL1        0.3096
      7 N          11.0310   41.4637    6.7719 N.am    1  UNL1       -0.2468
      8 N          13.4486   41.9450    6.7610 N.am    1  UNL1       -0.2679
      9 O          12.1651   42.0961    8.7160 O.2     1  UNL1       -0.2521
     10 H          11.1184   41.2814    5.8084 H       1  UNL1        0.1584
     11 H          13.4154   41.7379    5.7991 H       1  UNL1        0.1564
     12 C          14.7283   42.3122    7.2946 C.ar    1  UNL1        0.0546
     13 C          15.2877   43.5378    6.9192 C.ar    1  UNL1        0.0149
     14 C          16.5327   43.9298    7.4186 C.ar    1  UNL1        0.0044
     15 C          17.2274   43.0961    8.2987 C.ar    1  UNL1        0.0370
     16 C          16.6827   41.8675    8.6844 C.ar    1  UNL1        0.1400
     17 C          15.4313   41.4802    8.1788 C.ar    1  UNL1        0.0516
     18 C          16.9344   39.7803    9.9871 C.3     1  UNL1        0.2525
     19 O          17.4007   41.0549    9.5660 O.3     1  UNL1       -0.4714
     20 N           6.4257   41.8919    9.1907 N.pl3   1  UNL1       -0.2659
     21 C           5.5525   42.9429    8.7294 C.ar    1  UNL1        0.0531
     22 C           4.2300   43.0381    9.1926 C.ar    1  UNL1        0.0149
     23 C           3.3810   44.0425    8.7196 C.ar    1  UNL1        0.0013
     24 C           3.8430   44.9582    7.7714 C.ar    1  UNL1        0.0001
     25 C           5.1525   44.8674    7.2937 C.ar    1  UNL1        0.0013
     26 C           6.0012   43.8627    7.7671 C.ar    1  UNL1        0.0149
     27 C           6.0985   41.1902   10.4289 C.3     1  UNL1        0.0975
     28 C           7.0177   41.6486   11.5458 C.3     1  UNL1        0.0236
@<TRIPOS>BOND
     1     1    20    1
     2     1     5   ar
     3    27    20    1
     4    27    28    1
     5    22    23   ar
     6    24    25   ar
     7    26    21   ar
     8     2     7    1
     9     2     5   ar
    10     6     8   am
    11    13    14   ar
    12    15    16   ar
    13    16    19    1
    14    18    19    1
    15    17    12   ar
    16    20    21    1
    17     3     4   ar
    18     7     6   am
    19     8    12    1
    20     1     3   ar
    21    21    22   ar
    22    23    24   ar
    23    25    26   ar
    24     2     4   ar
    25     6     9    2
    26    12    13   ar
    27    14    15   ar
    28    16    17   ar
    29     7    10    1
    30     8    11    1
@<TRIPOS>MOLECULE
MolPort-007-713-548 ChemDiv-E002-0459 MCULE-5755976766 PubChem-22509990 ZINC000006768187
 28 30 0 0 0
SMALL
GASTEIGER

@<TRIPOS>ATOM
      1 C           7.8092   41.2770    9.1725 C.ar    1  UNL1        0.1905
      2 C           9.9702   40.5690    8.4132 C.ar    1  UNL1        0.1904
      3 N           7.7631   40.5292    8.0452 N.ar    1  UNL1       -0.1239
      4 N           8.9628   40.1299    7.6269 N.ar    1  UNL1       -0.1240
      5 S           9.4032   41.5006    9.6927 S.2     1  UNL1       -0.0151
      6 C          12.4051   41.2590    8.2062 C.2     1  UNL1        0.3096
      7 N          11.3542   40.2880    8.1835 N.am    1  UNL1       -0.2468
      8 N          13.7490   40.8273    7.9580 N.am    1  UNL1       -0.2679
      9 O          12.1499   42.4712    8.4401 O.2     1  UNL1       -0.2521
     10 H          11.6028   39.3542    7.9952 H       1  UNL1        0.1584
     11 H          13.8778   39.8673    7.7820 H       1  UNL1        0.1564
     12 C          14.9259   41.6469    7.9389 C.ar    1  UNL1        0.0546
     13 C          15.9917   41.3142    8.7812 C.ar    1  UNL1        0.0149
     14 C          17.1547   42.0890    8.7903 C.ar    1  UNL1        0.0044
     15 C          17.2589   43.2041    7.9549 C.ar    1  UNL1        0.0370
     16 C          16.2030   43.5510    7.1066 C.ar    1  UNL1        0.1400
     17 C          15.0374   42.7678    7.1026 C.ar    1  UNL1        0.0516
     18 C          15.2191   45.3540    5.7290 C.3     1  UNL1        0.2525
     19 O          16.3361   44.6717    6.2823 O.3     1  UNL1       -0.4714
     20 N           6.6401   41.8680    9.7720 N.pl3   1  UNL1       -0.2659
     21 C           5.8526   42.8786    9.1099 C.ar    1  UNL1        0.0531
     22 C           4.4780   43.0069    9.3681 C.ar    1  UNL1        0.0149
     23 C           3.7157   43.9702    8.7015 C.ar    1  UNL1        0.0013
     24 C           4.3184   44.8106    7.7627 C.ar    1  UNL1        0.0001
     25 C           5.6822   44.6855    7.4878 C.ar    1  UNL1        0.0013
     26 C           6.4442   43.7220    8.1549 C.ar    1  UNL1        0.0149
     27 C           6.2643   41.4450   11.1182 C.3     1  UNL1        0.0975
     28 C           7.4817   41.4489   12.0242 C.3     1  UNL1        0.0236
@<TRIPOS>BOND
     1     1    20    1
     2     1     5   ar
     3    27    20    1
     4    27    28    1
     5    22    23   ar
     6    24    25   ar
     7    26    21   ar
     8     2     7    1
     9     2     5   ar
    10     6     8   am
    11    13    14   ar
    12    15    16   ar
    13    16    19    1
    14    18    19    1
    15    17    12   ar
    16    20    21    1
    17     3     4   ar
    18     7     6   am
    19     8    12    1
    20     1     3   ar
    21    21    22   ar
    22    23    24   ar
    23    25    26   ar
    24     2     4   ar
    25     6     9    2
    26    12    13   ar
    27    14    15   ar
    28    16    17   ar
    29     7    10    1
    30     8    11    1
