@<TRIPOS>MOLECULE
MolPort-039-343-150 CSSS00132746343 MCULE-7163240322 PubChem-43819310
 34 38 0 0 0
SMALL
GASTEIGER

@<TRIPOS>ATOM
      1 C           9.5036   40.7327    6.2120 C.ar    1  UNL1        0.1777
      2 C          10.5920   40.5497    5.3557 C.ar    1  UNL1        0.1257
      3 N           8.5486   39.7553    6.1141 N.ar    1  UNL1       -0.1345
      4 N           8.8093   38.8008    5.2227 N.ar    1  UNL1       -0.1080
      5 S          10.2682   39.1477    4.5085 S.2     1  UNL1        0.0525
      6 C           9.3681   41.8680    7.1484 C.2     1  UNL1        0.2704
      7 C           9.5504   42.7697    9.4805 C.3     1  UNL1        0.0957
      8 C          10.0702   42.2710   10.8359 C.3     1  UNL1        0.0430
      9 C           9.1837   41.1606   11.3859 C.3     1  UNL1        0.0112
     10 C           9.1855   40.0077   10.3912 C.3     1  UNL1        0.0584
     11 C           8.5595   40.4901    9.0803 C.3     1  UNL1        0.0995
     12 C          10.5925   39.5398   10.1382 C.ar    1  UNL1        0.0411
     13 C          12.9252   39.9651    9.9057 C.ar    1  UNL1        0.2607
     14 C          13.1360   38.6514    9.4823 C.ar    1  UNL1        0.0608
     15 C          12.0568   37.7781    9.3850 C.ar    1  UNL1        0.0060
     16 C          10.7790   38.2225    9.7100 C.ar    1  UNL1        0.0130
     17 C          11.5191   41.7804   10.7365 C.3     1  UNL1        0.1104
     18 N           9.2842   41.6536    8.5670 N.am    1  UNL1       -0.2743
     19 N          11.6642   40.4029   10.2228 N.ar    1  UNL1       -0.2991
     20 O           9.3406   43.0447    6.6930 O.2     1  UNL1       -0.2681
     21 O          13.9191   40.7386    9.9972 O.2     1  UNL1       -0.2670
     22 C          12.7112   41.6903    6.2104 C.2     1  UNL1        0.3086
     23 N          11.7181   41.4251    5.2140 N.am    1  UNL1       -0.2605
     24 N          13.7672   42.6073    5.9000 N.am    1  UNL1       -0.2673
     25 O          12.6629   41.1214    7.3348 O.2     1  UNL1       -0.2521
     26 H          11.8181   41.8872    4.3505 H       1  UNL1        0.1570
     27 H          13.6862   43.0996    5.0512 H       1  UNL1        0.1564
     28 C          14.9335   42.8864    6.6951 C.ar    1  UNL1        0.0622
     29 C          15.4864   41.9216    7.5530 C.ar    1  UNL1        0.0156
     30 C          16.6394   42.2008    8.2925 C.ar    1  UNL1        0.0013
     31 C          17.2524   43.4514    8.1802 C.ar    1  UNL1        0.0009
     32 C          16.7082   44.4216    7.3351 C.ar    1  UNL1        0.0126
     33 C          15.5537   44.1450    6.5929 C.ar    1  UNL1        0.0711
     34 CL         14.9078   45.3909    5.5366 Cl      1  UNL1       -0.0810
@<TRIPOS>BOND
     1     1     3   ar
     2     1     6    1
     3     2     5   ar
     4     2    23    1
     5    22    24   am
     6    29    30   ar
     7    31    32   ar
     8    33    34    1
     9    33    28   ar
    10     6    18   am
    11     7    18    1
    12     8     7    1
    13     8     9    1
    14     9    10    1
    15    10    11    1
    16    10    12    1
    17    11    18    1
    18    12    19   ar
    19    13    14   ar
    20    15    16   ar
    21    17    19    1
    22    17     8    1
    23     4     5   ar
    24    23    22   am
    25    24    28    1
    26    19    13   ar
    27     2     1   ar
    28    22    25    2
    29    28    29   ar
    30    30    31   ar
    31    32    33   ar
    32     6    20    2
    33    13    21    2
    34    14    15   ar
    35    16    12   ar
    36     3     4   ar
    37    23    26    1
    38    24    27    1
@<TRIPOS>MOLECULE
MolPort-039-343-150 CSSS00132746343 MCULE-7163240322 PubChem-43819310
 34 38 0 0 0
SMALL
GASTEIGER

@<TRIPOS>ATOM
      1 C           8.7645   42.4914   10.9244 C.ar    1  UNL1        0.1777
      2 C           9.5944   41.4502   11.3469 C.ar    1  UNL1        0.1257
      3 N           7.8101   42.8483   11.8402 N.ar    1  UNL1       -0.1345
      4 N           7.8262   42.1472   12.9724 N.ar    1  UNL1       -0.1080
      5 S           9.0542   41.0333   12.8709 S.2     1  UNL1        0.0525
      6 C           8.8822   43.1648    9.6141 C.2     1  UNL1        0.2704
      7 C           7.9566   43.5993    7.3251 C.3     1  UNL1        0.0957
      8 C           6.6684   43.2710    6.5579 C.3     1  UNL1        0.0430
      9 C           6.5750   41.7796    6.2603 C.3     1  UNL1        0.0112
     10 C           6.5791   41.0250    7.5828 C.3     1  UNL1        0.0584
     11 C           7.9172   41.2716    8.2839 C.3     1  UNL1        0.0995
     12 C           5.4532   41.5020    8.4586 C.ar    1  UNL1        0.0411
     13 C           4.0096   43.2232    9.2526 C.ar    1  UNL1        0.2607
     14 C           3.4996   42.3638   10.2279 C.ar    1  UNL1        0.0608
     15 C           3.9794   41.0604   10.3155 C.ar    1  UNL1        0.0060
     16 C           4.9622   40.6267    9.4313 C.ar    1  UNL1        0.0130
     17 C           5.4238   43.7281    7.3271 C.3     1  UNL1        0.1104
     18 N           8.1361   42.7063    8.4747 N.am    1  UNL1       -0.2743
     19 N           4.9811   42.7952    8.3835 N.ar    1  UNL1       -0.2991
     20 O           9.6400   44.1677    9.5007 O.2     1  UNL1       -0.2681
     21 O           3.5536   44.3985    9.1831 O.2     1  UNL1       -0.2670
     22 C          11.7510   41.5315    9.9812 C.2     1  UNL1        0.3086
     23 N          10.6517   40.8463   10.5907 N.am    1  UNL1       -0.2605
     24 N          12.7153   40.7664    9.2482 N.am    1  UNL1       -0.2673
     25 O          11.8733   42.7814   10.0951 O.2     1  UNL1       -0.2521
     26 H          10.6189   39.8686   10.4800 H       1  UNL1        0.1570
     27 H          12.5037   39.8159    9.1033 H       1  UNL1        0.1564
     28 C          13.9598   41.2378    8.7009 C.ar    1  UNL1        0.0622
     29 C          13.9952   42.1837    7.6635 C.ar    1  UNL1        0.0156
     30 C          15.2148   42.6541    7.1677 C.ar    1  UNL1        0.0013
     31 C          16.4140   42.1816    7.7070 C.ar    1  UNL1        0.0009
     32 C          16.3918   41.2358    8.7350 C.ar    1  UNL1        0.0126
     33 C          15.1722   40.7630    9.2338 C.ar    1  UNL1        0.0711
     34 CL         15.1902   39.5800   10.5321 Cl      1  UNL1       -0.0810
@<TRIPOS>BOND
     1     1     3   ar
     2     1     6    1
     3     2     5   ar
     4     2    23    1
     5    22    24   am
     6    29    30   ar
     7    31    32   ar
     8    33    34    1
     9    33    28   ar
    10     6    18   am
    11     7    18    1
    12     8     7    1
    13     8     9    1
    14     9    10    1
    15    10    11    1
    16    10    12    1
    17    11    18    1
    18    12    19   ar
    19    13    14   ar
    20    15    16   ar
    21    17    19    1
    22    17     8    1
    23     4     5   ar
    24    23    22   am
    25    24    28    1
    26    19    13   ar
    27     2     1   ar
    28    22    25    2
    29    28    29   ar
    30    30    31   ar
    31    32    33   ar
    32     6    20    2
    33    13    21    2
    34    14    15   ar
    35    16    12   ar
    36     3     4   ar
    37    23    26    1
    38    24    27    1
@<TRIPOS>MOLECULE
MolPort-039-343-150 CSSS00132746343 MCULE-7163240322 PubChem-43819310
 34 38 0 0 0
SMALL
GASTEIGER

@<TRIPOS>ATOM
      1 C           9.4833   39.9089    7.0299 C.ar    1  UNL1        0.1777
      2 C          10.8597   39.8976    7.2677 C.ar    1  UNL1        0.1257
      3 N           8.8271   38.8060    7.5095 N.ar    1  UNL1       -0.1345
      4 N           9.6027   37.9084    8.1150 N.ar    1  UNL1       -0.1080
      5 S          11.1664   38.4670    8.0726 S.2     1  UNL1        0.0525
      6 C           8.7729   40.9979    6.3274 C.2     1  UNL1        0.2704
      7 C           7.2683   43.0009    6.4229 C.3     1  UNL1        0.0957
      8 C           6.6299   43.8700    7.5151 C.3     1  UNL1        0.0430
      9 C           5.5643   43.0929    8.2782 C.3     1  UNL1        0.0112
     10 C           6.2229   41.8800    8.9213 C.3     1  UNL1        0.0584
     11 C           6.7549   40.9664    7.8144 C.3     1  UNL1        0.0995
     12 C           7.3571   42.3125    9.8095 C.ar    1  UNL1        0.0411
     13 C           9.1634   43.7776   10.3269 C.ar    1  UNL1        0.2607
     14 C           9.5483   42.9511   11.3845 C.ar    1  UNL1        0.0608
     15 C           8.8261   41.7913   11.6495 C.ar    1  UNL1        0.0060
     16 C           7.7285   41.4668   10.8585 C.ar    1  UNL1        0.0130
     17 C           7.6816   44.4087    8.4915 C.3     1  UNL1        0.1104
     18 N           7.6845   41.6979    6.9523 N.am    1  UNL1       -0.2743
     19 N           8.0827   43.4547    9.5457 N.ar    1  UNL1       -0.2991
     20 O           9.1399   41.3260    5.1652 O.2     1  UNL1       -0.2681
     21 O           9.8255   44.8305   10.1095 O.2     1  UNL1       -0.2670
     22 C          13.0301   41.2215    7.5108 C.2     1  UNL1        0.3086
     23 N          11.8019   40.8946    6.8521 N.am    1  UNL1       -0.2605
     24 N          13.8493   42.2597    6.9599 N.am    1  UNL1       -0.2673
     25 O          13.3883   40.6020    8.5492 O.2     1  UNL1       -0.2521
     26 H          11.5839   41.4022    6.0372 H       1  UNL1        0.1570
     27 H          13.4623   42.7770    6.2170 H       1  UNL1        0.1564
     28 C          15.1768   42.6278    7.3755 C.ar    1  UNL1        0.0622
     29 C          15.9173   41.8294    8.2623 C.ar    1  UNL1        0.0156
     30 C          17.2183   42.1870    8.6283 C.ar    1  UNL1        0.0013
     31 C          17.7927   43.3498    8.1086 C.ar    1  UNL1        0.0009
     32 C          17.0637   44.1556    7.2306 C.ar    1  UNL1        0.0126
     33 C          15.7608   43.8002    6.8619 C.ar    1  UNL1        0.0711
     34 CL         14.8830   44.8378    5.7492 Cl      1  UNL1       -0.0810
@<TRIPOS>BOND
     1     1     3   ar
     2     1     6    1
     3     2     5   ar
     4     2    23    1
     5    22    24   am
     6    29    30   ar
     7    31    32   ar
     8    33    34    1
     9    33    28   ar
    10     6    18   am
    11     7    18    1
    12     8     7    1
    13     8     9    1
    14     9    10    1
    15    10    11    1
    16    10    12    1
    17    11    18    1
    18    12    19   ar
    19    13    14   ar
    20    15    16   ar
    21    17    19    1
    22    17     8    1
    23     4     5   ar
    24    23    22   am
    25    24    28    1
    26    19    13   ar
    27     2     1   ar
    28    22    25    2
    29    28    29   ar
    30    30    31   ar
    31    32    33   ar
    32     6    20    2
    33    13    21    2
    34    14    15   ar
    35    16    12   ar
    36     3     4   ar
    37    23    26    1
    38    24    27    1
@<TRIPOS>MOLECULE
MolPort-039-343-150 CSSS00132746343 MCULE-7163240322 PubChem-43819310
 34 38 0 0 0
SMALL
GASTEIGER

@<TRIPOS>ATOM
      1 C           8.3894   41.0308    5.7053 C.ar    1  UNL1        0.1777
      2 C           9.7756   40.9008    5.5924 C.ar    1  UNL1        0.1257
      3 N           7.6929   39.9171    5.3158 N.ar    1  UNL1       -0.1345
      4 N           8.4446   38.9026    4.8922 N.ar    1  UNL1       -0.1080
      5 S          10.0367   39.3663    4.9881 S.2     1  UNL1        0.0525
      6 C           7.7087   42.2471    6.1967 C.2     1  UNL1        0.2704
      7 C           7.1036   43.7536    8.1070 C.3     1  UNL1        0.0957
      8 C           7.4585   43.8708    9.5957 C.3     1  UNL1        0.0430
      9 C           6.8744   42.7090   10.3897 C.3     1  UNL1        0.0112
     10 C           7.4492   41.4122    9.8361 C.3     1  UNL1        0.0584
     11 C           6.9919   41.2536    8.3840 C.3     1  UNL1        0.0995
     12 C           8.9519   41.4418    9.8933 C.ar    1  UNL1        0.0411
     13 C          11.0244   42.6105    9.7675 C.ar    1  UNL1        0.2607
     14 C          11.7237   41.4033    9.8241 C.ar    1  UNL1        0.0608
     15 C          11.0219   40.2049    9.9129 C.ar    1  UNL1        0.0060
     16 C           9.6310   40.2213    9.9441 C.ar    1  UNL1        0.0130
     17 C           8.9751   43.9376    9.8087 C.3     1  UNL1        0.1104
     18 N           7.4018   42.4135    7.5908 N.am    1  UNL1       -0.2743
     19 N           9.6527   42.6250    9.7950 N.ar    1  UNL1       -0.2991
     20 O           7.4063   43.1592    5.3784 O.2     1  UNL1       -0.2681
     21 O          11.6800   43.6874    9.6976 O.2     1  UNL1       -0.2670
     22 C          12.0447   41.6875    6.4613 C.2     1  UNL1        0.3086
     23 N          10.7505   41.9084    5.8908 N.am    1  UNL1       -0.2605
     24 N          12.8898   42.8184    6.7044 N.am    1  UNL1       -0.2673
     25 O          12.4366   40.5206    6.7354 O.2     1  UNL1       -0.2521
     26 H          10.5072   42.8397    5.6840 H       1  UNL1        0.1570
     27 H          12.4845   43.7060    6.5731 H       1  UNL1        0.1564
     28 C          14.2672   42.7968    7.1199 C.ar    1  UNL1        0.0622
     29 C          14.7650   41.7901    7.9631 C.ar    1  UNL1        0.0156
     30 C          16.1141   41.7677    8.3289 C.ar    1  UNL1        0.0013
     31 C          16.9807   42.7548    7.8527 C.ar    1  UNL1        0.0009
     32 C          16.4961   43.7651    7.0184 C.ar    1  UNL1        0.0126
     33 C          15.1457   43.7902    6.6501 C.ar    1  UNL1        0.0711
     34 CL         14.5803   45.0741    5.5929 Cl      1  UNL1       -0.0810
@<TRIPOS>BOND
     1     1     3   ar
     2     1     6    1
     3     2     5   ar
     4     2    23    1
     5    22    24   am
     6    29    30   ar
     7    31    32   ar
     8    33    34    1
     9    33    28   ar
    10     6    18   am
    11     7    18    1
    12     8     7    1
    13     8     9    1
    14     9    10    1
    15    10    11    1
    16    10    12    1
    17    11    18    1
    18    12    19   ar
    19    13    14   ar
    20    15    16   ar
    21    17    19    1
    22    17     8    1
    23     4     5   ar
    24    23    22   am
    25    24    28    1
    26    19    13   ar
    27     2     1   ar
    28    22    25    2
    29    28    29   ar
    30    30    31   ar
    31    32    33   ar
    32     6    20    2
    33    13    21    2
    34    14    15   ar
    35    16    12   ar
    36     3     4   ar
    37    23    26    1
    38    24    27    1
@<TRIPOS>MOLECULE
MolPort-039-343-150 CSSS00132746343 MCULE-7163240322 PubChem-43819310
 34 38 0 0 0
SMALL
GASTEIGER

@<TRIPOS>ATOM
      1 C           9.0892   40.5854    6.3422 C.ar    1  UNL1        0.1777
      2 C           8.5807   40.1449    7.5664 C.ar    1  UNL1        0.1257
      3 N           8.1518   41.1617    5.5259 N.ar    1  UNL1       -0.1345
      4 N           6.9185   41.2033    6.0266 N.ar    1  UNL1       -0.1080
      5 S           6.9512   40.5080    7.5347 S.2     1  UNL1        0.0525
      6 C          10.5045   40.4545    5.9377 C.2     1  UNL1        0.2704
      7 C          12.9225   40.9594    6.3663 C.3     1  UNL1        0.0957
      8 C          13.7492   41.6078    7.4853 C.3     1  UNL1        0.0430
      9 C          13.4708   43.1032    7.5736 C.3     1  UNL1        0.0112
     10 C          11.9891   43.2994    7.8644 C.3     1  UNL1        0.0584
     11 C          11.1811   42.7494    6.6865 C.3     1  UNL1        0.0995
     12 C          11.6048   42.5737    9.1247 C.ar    1  UNL1        0.0411
     13 C          11.8302   40.7423   10.6320 C.ar    1  UNL1        0.2607
     14 C          10.7255   41.1886   11.3601 C.ar    1  UNL1        0.0608
     15 C          10.0555   42.3401   10.9578 C.ar    1  UNL1        0.0060
     16 C          10.4925   43.0349    9.8343 C.ar    1  UNL1        0.0130
     17 C          13.4774   40.9460    8.8410 C.3     1  UNL1        0.1104
     18 N          11.5094   41.3416    6.4561 N.am    1  UNL1       -0.2743
     19 N          12.2580   41.4266    9.5224 N.ar    1  UNL1       -0.2991
     20 O          10.8356   39.5385    5.1350 O.2     1  UNL1       -0.2681
     21 O          12.4304   39.7013   11.0196 O.2     1  UNL1       -0.2670
     22 C          10.3076   38.4622    8.4086 C.2     1  UNL1        0.3086
     23 N           9.3148   39.4757    8.5998 N.am    1  UNL1       -0.2605
     24 N          10.9358   37.8905    9.5622 N.am    1  UNL1       -0.2673
     25 O          10.6294   38.0872    7.2484 O.2     1  UNL1       -0.2521
     26 H           9.1176   39.7375    9.5282 H       1  UNL1        0.1570
     27 H          10.5628   38.1451   10.4371 H       1  UNL1        0.1564
     28 C          12.0534   36.9843    9.5799 C.ar    1  UNL1        0.0622
     29 C          13.2001   37.2160    8.8029 C.ar    1  UNL1        0.0156
     30 C          14.2891   36.3412    8.8590 C.ar    1  UNL1        0.0013
     31 C          14.2413   35.2232    9.6957 C.ar    1  UNL1        0.0009
     32 C          13.1036   34.9785   10.4687 C.ar    1  UNL1        0.0126
     33 C          12.0115   35.8528   10.4150 C.ar    1  UNL1        0.0711
     34 CL         10.6043   35.5116   11.4094 Cl      1  UNL1       -0.0810
@<TRIPOS>BOND
     1     1     3   ar
     2     1     6    1
     3     2     5   ar
     4     2    23    1
     5    22    24   am
     6    29    30   ar
     7    31    32   ar
     8    33    34    1
     9    33    28   ar
    10     6    18   am
    11     7    18    1
    12     8     7    1
    13     8     9    1
    14     9    10    1
    15    10    11    1
    16    10    12    1
    17    11    18    1
    18    12    19   ar
    19    13    14   ar
    20    15    16   ar
    21    17    19    1
    22    17     8    1
    23     4     5   ar
    24    23    22   am
    25    24    28    1
    26    19    13   ar
    27     2     1   ar
    28    22    25    2
    29    28    29   ar
    30    30    31   ar
    31    32    33   ar
    32     6    20    2
    33    13    21    2
    34    14    15   ar
    35    16    12   ar
    36     3     4   ar
    37    23    26    1
    38    24    27    1
@<TRIPOS>MOLECULE
MolPort-039-343-150 CSSS00132746343 MCULE-7163240322 PubChem-43819310
 34 38 0 0 0
SMALL
GASTEIGER

@<TRIPOS>ATOM
      1 C          11.7079   39.3261    8.2687 C.ar    1  UNL1        0.1777
      2 C          11.7865   40.5248    8.9815 C.ar    1  UNL1        0.1257
      3 N          10.4856   38.7121    8.3465 N.ar    1  UNL1       -0.1345
      4 N           9.5810   39.3506    9.0865 N.ar    1  UNL1       -0.1080
      5 S          10.2859   40.7307    9.6843 S.2     1  UNL1        0.0525
      6 C          12.8255   38.7488    7.4930 C.2     1  UNL1        0.2704
      7 C          14.8170   37.2295    7.3896 C.3     1  UNL1        0.0957
      8 C          15.4786   36.1879    8.3024 C.3     1  UNL1        0.0430
      9 C          16.1077   36.8508    9.5215 C.3     1  UNL1        0.0112
     10 C          15.0123   37.5733   10.2939 C.3     1  UNL1        0.0584
     11 C          14.4398   38.6840    9.4099 C.3     1  UNL1        0.0995
     12 C          13.9188   36.6115   10.6702 C.ar    1  UNL1        0.0411
     13 C          12.5708   34.7000   10.2165 C.ar    1  UNL1        0.2607
     14 C          11.7727   34.9828   11.3269 C.ar    1  UNL1        0.0608
     15 C          12.0553   36.0969   12.1116 C.ar    1  UNL1        0.0060
     16 C          13.1292   36.9177   11.7821 C.ar    1  UNL1        0.0130
     17 C          14.4782   35.1161    8.7499 C.3     1  UNL1        0.1104
     18 N          13.9423   38.1279    8.1506 N.am    1  UNL1       -0.2743
     19 N          13.6276   35.5121    9.8909 N.ar    1  UNL1       -0.2991
     20 O          12.7887   38.7903    6.2320 O.2     1  UNL1       -0.2681
     21 O          12.3040   33.6787    9.5236 O.2     1  UNL1       -0.2670
     22 C          13.8786   41.6744    8.0735 C.2     1  UNL1        0.3086
     23 N          12.9427   41.3621    9.1108 N.am    1  UNL1       -0.2605
     24 N          14.9897   42.5235    8.3843 N.am    1  UNL1       -0.2673
     25 O          13.7230   41.2191    6.9078 O.2     1  UNL1       -0.2521
     26 H          13.1088   41.7598    9.9960 H       1  UNL1        0.1570
     27 H          15.1148   42.7536    9.3334 H       1  UNL1        0.1564
     28 C          15.9426   43.0764    7.4587 C.ar    1  UNL1        0.0622
     29 C          17.3238   42.8804    7.6208 C.ar    1  UNL1        0.0156
     30 C          18.2320   43.3977    6.6923 C.ar    1  UNL1        0.0013
     31 C          17.7657   44.1176    5.5894 C.ar    1  UNL1        0.0009
     32 C          16.3944   44.3247    5.4207 C.ar    1  UNL1        0.0126
     33 C          15.4824   43.8078    6.3485 C.ar    1  UNL1        0.0711
     34 CL         13.7667   44.0849    6.0936 Cl      1  UNL1       -0.0810
@<TRIPOS>BOND
     1     1     3   ar
     2     1     6    1
     3     2     5   ar
     4     2    23    1
     5    22    24   am
     6    29    30   ar
     7    31    32   ar
     8    33    34    1
     9    33    28   ar
    10     6    18   am
    11     7    18    1
    12     8     7    1
    13     8     9    1
    14     9    10    1
    15    10    11    1
    16    10    12    1
    17    11    18    1
    18    12    19   ar
    19    13    14   ar
    20    15    16   ar
    21    17    19    1
    22    17     8    1
    23     4     5   ar
    24    23    22   am
    25    24    28    1
    26    19    13   ar
    27     2     1   ar
    28    22    25    2
    29    28    29   ar
    30    30    31   ar
    31    32    33   ar
    32     6    20    2
    33    13    21    2
    34    14    15   ar
    35    16    12   ar
    36     3     4   ar
    37    23    26    1
    38    24    27    1
@<TRIPOS>MOLECULE
MolPort-039-343-150 CSSS00132746343 MCULE-7163240322 PubChem-43819310
 34 38 0 0 0
SMALL
GASTEIGER

@<TRIPOS>ATOM
      1 C           9.8134   37.8848    7.3701 C.ar    1  UNL1        0.1777
      2 C           8.9999   39.0069    7.1958 C.ar    1  UNL1        0.1257
      3 N          10.0511   37.1858    6.2159 N.ar    1  UNL1       -0.1345
      4 N           9.4690   37.6833    5.1263 N.ar    1  UNL1       -0.1080
      5 S           8.6183   39.0390    5.5705 S.2     1  UNL1        0.0525
      6 C          10.3796   37.4658    8.6692 C.2     1  UNL1        0.2704
      7 C          12.0656   37.8044   10.4935 C.3     1  UNL1        0.0957
      8 C          13.1313   38.8490   10.8528 C.3     1  UNL1        0.0430
      9 C          14.2850   38.8167    9.8581 C.3     1  UNL1        0.0112
     10 C          13.7322   39.1182    8.4718 C.3     1  UNL1        0.0584
     11 C          12.7558   38.0062    8.0806 C.3     1  UNL1        0.0995
     12 C          13.0180   40.4421    8.4720 C.ar    1  UNL1        0.0411
     13 C          11.6796   42.0932    9.5486 C.ar    1  UNL1        0.2607
     14 C          11.5675   42.8023    8.3509 C.ar    1  UNL1        0.0608
     15 C          12.1881   42.3175    7.2035 C.ar    1  UNL1        0.0060
     16 C          12.9134   41.1315    7.2607 C.ar    1  UNL1        0.0130
     17 C          12.5365   40.2604   10.9157 C.3     1  UNL1        0.1104
     18 N          11.6909   37.8886    9.0780 N.am    1  UNL1       -0.2743
     19 N          12.3925   40.9222    9.6029 N.ar    1  UNL1       -0.2991
     20 O           9.6922   36.7366    9.4365 O.2     1  UNL1       -0.2681
     21 O          11.1178   42.5553   10.5806 O.2     1  UNL1       -0.2670
     22 C           8.4429   41.3247    8.1124 C.2     1  UNL1        0.3086
     23 N           8.5555   39.9019    8.2234 N.am    1  UNL1       -0.2605
     24 N           7.9900   42.0683    9.2501 N.am    1  UNL1       -0.2673
     25 O           8.7274   41.9105    7.0325 O.2     1  UNL1       -0.2521
     26 H           8.3042   39.5006    9.0866 H       1  UNL1        0.1570
     27 H           7.8918   41.5670   10.0917 H       1  UNL1        0.1564
     28 C           7.6634   43.4688    9.2951 C.ar    1  UNL1        0.0622
     29 C           8.5735   44.4207    9.7830 C.ar    1  UNL1        0.0156
     30 C           8.2501   45.7808    9.7878 C.ar    1  UNL1        0.0013
     31 C           7.0097   46.2028    9.3026 C.ar    1  UNL1        0.0009
     32 C           6.0933   45.2649    8.8205 C.ar    1  UNL1        0.0126
     33 C           6.4143   43.9022    8.8142 C.ar    1  UNL1        0.0711
     34 CL          5.2358   42.7579    8.1919 Cl      1  UNL1       -0.0810
@<TRIPOS>BOND
     1     1     3   ar
     2     1     6    1
     3     2     5   ar
     4     2    23    1
     5    22    24   am
     6    29    30   ar
     7    31    32   ar
     8    33    34    1
     9    33    28   ar
    10     6    18   am
    11     7    18    1
    12     8     7    1
    13     8     9    1
    14     9    10    1
    15    10    11    1
    16    10    12    1
    17    11    18    1
    18    12    19   ar
    19    13    14   ar
    20    15    16   ar
    21    17    19    1
    22    17     8    1
    23     4     5   ar
    24    23    22   am
    25    24    28    1
    26    19    13   ar
    27     2     1   ar
    28    22    25    2
    29    28    29   ar
    30    30    31   ar
    31    32    33   ar
    32     6    20    2
    33    13    21    2
    34    14    15   ar
    35    16    12   ar
    36     3     4   ar
    37    23    26    1
    38    24    27    1
@<TRIPOS>MOLECULE
MolPort-039-343-150 CSSS00132746343 MCULE-7163240322 PubChem-43819310
 34 38 0 0 0
SMALL
GASTEIGER

@<TRIPOS>ATOM
      1 C           8.8371   42.4577   10.8373 C.ar    1  UNL1        0.1777
      2 C           9.9396   41.7387   10.3695 C.ar    1  UNL1        0.1257
      3 N           9.0146   43.8162   10.8280 N.ar    1  UNL1       -0.1345
      4 N          10.2010   44.2259   10.3828 N.ar    1  UNL1       -0.1080
      5 S          11.0907   42.8831    9.9776 S.2     1  UNL1        0.0525
      6 C           7.5810   41.8360   11.3059 C.2     1  UNL1        0.2704
      7 C           5.1945   41.2065   10.8658 C.3     1  UNL1        0.0957
      8 C           4.2340   41.2275    9.6688 C.3     1  UNL1        0.0430
      9 C           3.8788   42.6567    9.2783 C.3     1  UNL1        0.0112
     10 C           5.1627   43.3859    8.9061 C.3     1  UNL1        0.0584
     11 C           6.0627   43.4563   10.1421 C.3     1  UNL1        0.0995
     12 C           5.8757   42.6549    7.8016 C.ar    1  UNL1        0.0411
     13 C           6.4998   40.6403    6.6931 C.ar    1  UNL1        0.2607
     14 C           7.3606   41.3524    5.8554 C.ar    1  UNL1        0.0608
     15 C           7.4775   42.7315    6.0007 C.ar    1  UNL1        0.0060
     16 C           6.7363   43.3869    6.9789 C.ar    1  UNL1        0.0130
     17 C           4.8233   40.4885    8.4619 C.3     1  UNL1        0.1104
     18 N           6.3292   42.1119   10.6561 N.am    1  UNL1       -0.2743
     19 N           5.7719   41.2875    7.6594 N.ar    1  UNL1       -0.2991
     20 O           7.6134   41.0387   12.2838 O.2     1  UNL1       -0.2681
     21 O           6.4003   39.3912    6.5382 O.2     1  UNL1       -0.2670
     22 C          11.2145   39.5786    9.8885 C.2     1  UNL1        0.3086
     23 N          10.0552   40.3118   10.2982 N.am    1  UNL1       -0.2605
     24 N          11.1491   38.1477    9.8656 N.am    1  UNL1       -0.2673
     25 O          12.2745   40.1796    9.5634 O.2     1  UNL1       -0.2521
     26 H           9.2631   39.7866   10.5551 H       1  UNL1        0.1570
     27 H          10.2641   37.7459   10.0224 H       1  UNL1        0.1564
     28 C          12.2377   37.2346    9.6383 C.ar    1  UNL1        0.0622
     29 C          13.3214   37.5738    8.8120 C.ar    1  UNL1        0.0156
     30 C          14.3857   36.6858    8.6299 C.ar    1  UNL1        0.0013
     31 C          14.3761   35.4465    9.2752 C.ar    1  UNL1        0.0009
     32 C          13.3007   35.0950   10.0946 C.ar    1  UNL1        0.0126
     33 C          12.2335   35.9822   10.2792 C.ar    1  UNL1        0.0711
     34 CL         10.9055   35.5030   11.3242 Cl      1  UNL1       -0.0810
@<TRIPOS>BOND
     1     1     3   ar
     2     1     6    1
     3     2     5   ar
     4     2    23    1
     5    22    24   am
     6    29    30   ar
     7    31    32   ar
     8    33    34    1
     9    33    28   ar
    10     6    18   am
    11     7    18    1
    12     8     7    1
    13     8     9    1
    14     9    10    1
    15    10    11    1
    16    10    12    1
    17    11    18    1
    18    12    19   ar
    19    13    14   ar
    20    15    16   ar
    21    17    19    1
    22    17     8    1
    23     4     5   ar
    24    23    22   am
    25    24    28    1
    26    19    13   ar
    27     2     1   ar
    28    22    25    2
    29    28    29   ar
    30    30    31   ar
    31    32    33   ar
    32     6    20    2
    33    13    21    2
    34    14    15   ar
    35    16    12   ar
    36     3     4   ar
    37    23    26    1
    38    24    27    1
@<TRIPOS>MOLECULE
MolPort-039-343-150 CSSS00132746343 MCULE-7163240322 PubChem-43819310
 34 38 0 0 0
SMALL
GASTEIGER

@<TRIPOS>ATOM
      1 C          14.1056   41.4997    7.7443 C.ar    1  UNL1        0.1777
      2 C          13.6643   41.2298    9.0419 C.ar    1  UNL1        0.1257
      3 N          15.3621   41.0249    7.4743 N.ar    1  UNL1       -0.1345
      4 N          15.9545   40.3929    8.4858 N.ar    1  UNL1       -0.1080
      5 S          14.9138   40.4042    9.7804 S.2     1  UNL1        0.0525
      6 C          13.3110   42.2292    6.7341 C.2     1  UNL1        0.2704
      7 C          11.2629   42.3686    5.2951 C.3     1  UNL1        0.0957
      8 C           9.9515   41.5871    5.1360 C.3     1  UNL1        0.0430
      9 C          10.2078   40.2026    4.5539 C.3     1  UNL1        0.0112
     10 C          11.1319   39.4476    5.4997 C.3     1  UNL1        0.0584
     11 C          12.4757   40.1781    5.5593 C.3     1  UNL1        0.0995
     12 C          10.5292   39.3832    6.8763 C.ar    1  UNL1        0.0411
     13 C           9.2289   40.3308    8.6336 C.ar    1  UNL1        0.2607
     14 C           9.6000   39.2900    9.4873 C.ar    1  UNL1        0.0608
     15 C          10.4488   38.2893    9.0238 C.ar    1  UNL1        0.0060
     16 C          10.9193   38.3357    7.7153 C.ar    1  UNL1        0.0130
     17 C           9.2062   41.4620    6.4697 C.3     1  UNL1        0.1104
     18 N          12.2828   41.5670    5.9793 N.am    1  UNL1       -0.2743
     19 N           9.6962   40.3771    7.3445 N.ar    1  UNL1       -0.2991
     20 O          13.5315   43.4572    6.5435 O.2     1  UNL1       -0.2681
     21 O           8.4497   41.2233    9.0702 O.2     1  UNL1       -0.2670
     22 C          11.8448   41.1377   10.8317 C.2     1  UNL1        0.3086
     23 N          12.4139   41.6330    9.6151 N.am    1  UNL1       -0.2605
     24 N          10.5732   41.6467   11.2516 N.am    1  UNL1       -0.2673
     25 O          12.4545   40.2782   11.5244 O.2     1  UNL1       -0.2521
     26 H          11.8982   42.3144    9.1263 H       1  UNL1        0.1570
     27 H          10.1008   42.2292   10.6139 H       1  UNL1        0.1564
     28 C           9.9121   41.3981   12.5053 C.ar    1  UNL1        0.0622
     29 C          10.6299   41.0276   13.6541 C.ar    1  UNL1        0.0156
     30 C           9.9731   40.8227   14.8711 C.ar    1  UNL1        0.0013
     31 C           8.5879   40.9875   14.9507 C.ar    1  UNL1        0.0009
     32 C           7.8620   41.3497   13.8133 C.ar    1  UNL1        0.0126
     33 C           8.5168   41.5558   12.5932 C.ar    1  UNL1        0.0711
     34 CL          7.5666   42.0179   11.1900 Cl      1  UNL1       -0.0810
@<TRIPOS>BOND
     1     1     3   ar
     2     1     6    1
     3     2     5   ar
     4     2    23    1
     5    22    24   am
     6    29    30   ar
     7    31    32   ar
     8    33    34    1
     9    33    28   ar
    10     6    18   am
    11     7    18    1
    12     8     7    1
    13     8     9    1
    14     9    10    1
    15    10    11    1
    16    10    12    1
    17    11    18    1
    18    12    19   ar
    19    13    14   ar
    20    15    16   ar
    21    17    19    1
    22    17     8    1
    23     4     5   ar
    24    23    22   am
    25    24    28    1
    26    19    13   ar
    27     2     1   ar
    28    22    25    2
    29    28    29   ar
    30    30    31   ar
    31    32    33   ar
    32     6    20    2
    33    13    21    2
    34    14    15   ar
    35    16    12   ar
    36     3     4   ar
    37    23    26    1
    38    24    27    1
@<TRIPOS>MOLECULE
MolPort-039-343-150 CSSS00132746343 MCULE-7163240322 PubChem-43819310
 34 38 0 0 0
SMALL
GASTEIGER

@<TRIPOS>ATOM
      1 C           9.9653   39.7652    7.7147 C.ar    1  UNL1        0.1777
      2 C          10.4850   40.3861    6.5764 C.ar    1  UNL1        0.1257
      3 N           9.0063   38.8243    7.4459 N.ar    1  UNL1       -0.1345
      4 N           8.7252   38.6599    6.1546 N.ar    1  UNL1       -0.1080
      5 S           9.6796   39.7032    5.2829 S.2     1  UNL1        0.0525
      6 C          10.3919   40.0753    9.0952 C.2     1  UNL1        0.2704
      7 C          10.0765   41.3988   11.2009 C.3     1  UNL1        0.0957
      8 C           9.0469   42.3938   11.7539 C.3     1  UNL1        0.0430
      9 C           9.0954   43.7112   10.9900 C.3     1  UNL1        0.0112
     10 C           8.7864   43.4288    9.5260 C.3     1  UNL1        0.0584
     11 C           9.8848   42.5266    8.9581 C.3     1  UNL1        0.0995
     12 C           7.4528   42.7453    9.3971 C.ar    1  UNL1        0.0411
     13 C           5.7829   41.2535   10.2113 C.ar    1  UNL1        0.2607
     14 C           5.0726   41.3749    9.0153 C.ar    1  UNL1        0.0608
     15 C           5.5662   42.1905    8.0014 C.ar    1  UNL1        0.0060
     16 C           6.7621   42.8763    8.1892 C.ar    1  UNL1        0.0130
     17 C           7.6273   41.8171   11.7090 C.3     1  UNL1        0.1104
     18 N           9.9873   41.2939    9.7407 N.am    1  UNL1       -0.2743
     19 N           6.9638   41.9278   10.3938 N.ar    1  UNL1       -0.2991
     20 O          11.1112   39.2477    9.7202 O.2     1  UNL1       -0.2681
     21 O           5.3128   40.5167   11.1226 O.2     1  UNL1       -0.2670
     22 C          12.7949   41.3494    7.0852 C.2     1  UNL1        0.3086
     23 N          11.4689   41.4282    6.5515 N.am    1  UNL1       -0.2605
     24 N          13.6454   42.4977    6.9827 N.am    1  UNL1       -0.2673
     25 O          13.2092   40.2881    7.6259 O.2     1  UNL1       -0.2521
     26 H          11.2084   42.2777    6.1276 H       1  UNL1        0.1570
     27 H          13.2276   43.3256    6.6520 H       1  UNL1        0.1564
     28 C          15.0443   42.5713    7.3111 C.ar    1  UNL1        0.0622
     29 C          15.6040   41.7779    8.3258 C.ar    1  UNL1        0.0156
     30 C          16.9719   41.8397    8.6077 C.ar    1  UNL1        0.0013
     31 C          17.7954   42.6979    7.8746 C.ar    1  UNL1        0.0009
     32 C          17.2494   43.4968    6.8670 C.ar    1  UNL1        0.0126
     33 C          15.8800   43.4371    6.5821 C.ar    1  UNL1        0.0711
     34 CL         15.2366   44.4531    5.3018 Cl      1  UNL1       -0.0810
@<TRIPOS>BOND
     1     1     3   ar
     2     1     6    1
     3     2     5   ar
     4     2    23    1
     5    22    24   am
     6    29    30   ar
     7    31    32   ar
     8    33    34    1
     9    33    28   ar
    10     6    18   am
    11     7    18    1
    12     8     7    1
    13     8     9    1
    14     9    10    1
    15    10    11    1
    16    10    12    1
    17    11    18    1
    18    12    19   ar
    19    13    14   ar
    20    15    16   ar
    21    17    19    1
    22    17     8    1
    23     4     5   ar
    24    23    22   am
    25    24    28    1
    26    19    13   ar
    27     2     1   ar
    28    22    25    2
    29    28    29   ar
    30    30    31   ar
    31    32    33   ar
    32     6    20    2
    33    13    21    2
    34    14    15   ar
    35    16    12   ar
    36     3     4   ar
    37    23    26    1
    38    24    27    1
