@<TRIPOS>MOLECULE
MolPort-002-614-447 2429038 LN00680422 PubChem-1630520 ZINC000002429038 ZINC02429038
 30 33 0 0 0
SMALL
GASTEIGER

@<TRIPOS>ATOM
      1 C          12.2416   42.0619    7.5003 C.ar    1  UNL1        0.1568
      2 C          13.0553   41.3203    8.3418 C.ar    1  UNL1        0.0689
      3 C          12.8215   40.5066    9.4458 C.ar    1  UNL1        0.0074
      4 C          13.9489   39.9623   10.0850 C.ar    1  UNL1        0.0179
      5 C          13.7952   39.1245   11.1917 C.ar    1  UNL1        0.0015
      6 C          14.9219   38.5895   11.8240 C.ar    1  UNL1        0.0001
      7 C          16.2052   38.8905   11.3550 C.ar    1  UNL1        0.0015
      8 C          16.3747   39.7297   10.2492 C.ar    1  UNL1        0.0192
      9 C          15.2596   40.2711    9.6048 C.ar    1  UNL1        0.0829
     10 C          14.3220   41.6020    7.9219 C.ar    1  UNL1        0.1621
     11 N          14.2841   42.4725    6.9016 N.ar    1  UNL1       -0.2329
     12 N          13.0149   42.7686    6.6394 N.ar    1  UNL1       -0.1527
     13 N          15.4257   41.0988    8.5299 N.ar    1  UNL1       -0.2268
     14 C           9.8785   41.1217    7.4505 C.2     1  UNL1        0.2316
     15 N          10.8169   42.1956    7.5595 N.am    1  UNL1       -0.2676
     16 O          10.2121   40.0190    6.9415 O.2     1  UNL1       -0.2744
     17 H          10.4534   43.1018    7.6857 H       1  UNL1        0.1563
     18 C           8.4826   41.3153    7.9330 C.3     1  UNL1        0.1117
     19 C           8.4547   41.3579    9.4229 C.ar    1  UNL1       -0.0129
     20 C           7.2524   41.6042   10.0942 C.ar    1  UNL1       -0.0007
     21 C           7.2305   41.6722   11.4903 C.ar    1  UNL1        0.0366
     22 C           8.4087   41.4998   12.2249 C.ar    1  UNL1        0.1387
     23 C           9.6152   41.2590   11.5468 C.ar    1  UNL1        0.0366
     24 C           9.6375   41.1908   10.1509 C.ar    1  UNL1       -0.0007
     25 C           9.3692   41.0389   14.4571 C.3     1  UNL1        0.2525
     26 O           8.3533   41.5734   13.6194 O.3     1  UNL1       -0.4714
     27 C          15.4256   43.0241    6.1888 C.3     1  UNL1        0.1292
     28 C          15.9382   44.2627    6.9050 C.3     1  UNL1        0.0264
     29 C          17.5662   43.8200    8.7400 C.3     1  UNL1        0.0001
     30 C          17.4058   44.1008    7.2577 C.3     1  UNL1        0.0021
@<TRIPOS>BOND
     1    29    30    1
     2    30    28    1
     3    28    27    1
     4    27    11    1
     5     1    15    1
     6     1     2   ar
     7    18    14    1
     8    18    19    1
     9    20    21   ar
    10    22    26    1
    11    22    23   ar
    12    25    26    1
    13    24    19   ar
    14     3     4   ar
    15     5     6   ar
    16     7     8   ar
    17     9    13   ar
    18     9     4   ar
    19    10    11   ar
    20    10     2   ar
    21    11    12   ar
    22    15    14   am
    23     1    12   ar
    24    14    16    2
    25    19    20   ar
    26    21    22   ar
    27    23    24   ar
    28     2     3   ar
    29     4     5   ar
    30     6     7   ar
    31     8     9   ar
    32    10    13   ar
    33    15    17    1
@<TRIPOS>MOLECULE
MolPort-002-614-447 2429038 LN00680422 PubChem-1630520 ZINC000002429038 ZINC02429038
 30 33 0 0 0
SMALL
GASTEIGER

@<TRIPOS>ATOM
      1 C          12.5300   42.2877    6.4251 C.ar    1  UNL1        0.1568
      2 C          13.2338   41.4835    7.3072 C.ar    1  UNL1        0.0689
      3 C          12.9342   40.3179    8.0053 C.ar    1  UNL1        0.0074
      4 C          13.9227   39.8253    8.8747 C.ar    1  UNL1        0.0179
      5 C          13.7019   38.6524    9.6000 C.ar    1  UNL1        0.0015
      6 C          14.6891   38.1704   10.4653 C.ar    1  UNL1        0.0001
      7 C          15.8986   38.8585   10.6107 C.ar    1  UNL1        0.0015
      8 C          16.1330   40.0354    9.8926 C.ar    1  UNL1        0.0192
      9 C          15.1580   40.5295    9.0226 C.ar    1  UNL1        0.0829
     10 C          14.4193   42.1340    7.4855 C.ar    1  UNL1        0.1621
     11 N          14.4309   43.2701    6.7718 N.ar    1  UNL1       -0.2329
     12 N          13.2752   43.3799    6.1243 N.ar    1  UNL1       -0.1527
     13 N          15.3835   41.6849    8.3279 N.ar    1  UNL1       -0.2268
     14 C          10.6003   40.8631    5.5781 C.2     1  UNL1        0.2316
     15 N          11.1854   42.1095    5.9654 N.am    1  UNL1       -0.2676
     16 O          11.3208   39.8761    5.2733 O.2     1  UNL1       -0.2744
     17 H          10.6167   42.9113    5.9114 H       1  UNL1        0.1563
     18 C           9.1173   40.7352    5.5208 C.3     1  UNL1        0.1117
     19 C           8.5291   40.9609    6.8718 C.ar    1  UNL1       -0.0129
     20 C           7.1402   41.0077    7.0321 C.ar    1  UNL1       -0.0007
     21 C           6.5880   41.2473    8.2939 C.ar    1  UNL1        0.0366
     22 C           7.4182   41.4466    9.4024 C.ar    1  UNL1        0.1387
     23 C           8.8124   41.4052    9.2361 C.ar    1  UNL1        0.0366
     24 C           9.3649   41.1656    7.9747 C.ar    1  UNL1       -0.0007
     25 C           7.5344   41.4934   11.8726 C.3     1  UNL1        0.2525
     26 O           6.8351   41.6837   10.6501 O.3     1  UNL1       -0.4714
     27 C          15.5104   44.2426    6.7063 C.3     1  UNL1        0.1292
     28 C          16.4542   43.8975    5.5662 C.3     1  UNL1        0.0264
     29 C          17.9560   44.0429    7.5503 C.3     1  UNL1        0.0001
     30 C          17.8467   43.6132    6.0993 C.3     1  UNL1        0.0021
@<TRIPOS>BOND
     1    29    30    1
     2    30    28    1
     3    28    27    1
     4    27    11    1
     5     1    15    1
     6     1     2   ar
     7    18    14    1
     8    18    19    1
     9    20    21   ar
    10    22    26    1
    11    22    23   ar
    12    25    26    1
    13    24    19   ar
    14     3     4   ar
    15     5     6   ar
    16     7     8   ar
    17     9    13   ar
    18     9     4   ar
    19    10    11   ar
    20    10     2   ar
    21    11    12   ar
    22    15    14   am
    23     1    12   ar
    24    14    16    2
    25    19    20   ar
    26    21    22   ar
    27    23    24   ar
    28     2     3   ar
    29     4     5   ar
    30     6     7   ar
    31     8     9   ar
    32    10    13   ar
    33    15    17    1
@<TRIPOS>MOLECULE
MolPort-002-614-447 2429038 LN00680422 PubChem-1630520 ZINC000002429038 ZINC02429038
 30 33 0 0 0
SMALL
GASTEIGER

@<TRIPOS>ATOM
      1 C          12.1070   41.5734    7.3588 C.ar    1  UNL1        0.1568
      2 C          12.9249   40.9016    8.2532 C.ar    1  UNL1        0.0689
      3 C          12.6972   39.9788    9.2690 C.ar    1  UNL1        0.0074
      4 C          13.8145   39.5650   10.0148 C.ar    1  UNL1        0.0179
      5 C          13.6688   38.6303   11.0422 C.ar    1  UNL1        0.0015
      6 C          14.7848   38.2261   11.7816 C.ar    1  UNL1        0.0001
      7 C          16.0490   38.7548   11.4991 C.ar    1  UNL1        0.0015
      8 C          16.2098   39.6931   10.4747 C.ar    1  UNL1        0.0192
      9 C          15.1056   40.1063    9.7253 C.ar    1  UNL1        0.0829
     10 C          14.1702   41.4050    8.0162 C.ar    1  UNL1        0.1621
     11 N          14.1127   42.3359    7.0516 N.ar    1  UNL1       -0.2329
     12 N          12.8522   42.4543    6.6466 N.ar    1  UNL1       -0.1527
     13 N          15.2614   41.0304    8.7303 N.ar    1  UNL1       -0.2268
     14 C           9.7401   42.2908    7.9538 C.2     1  UNL1        0.2316
     15 N          10.6824   41.4832    7.2426 N.am    1  UNL1       -0.2676
     16 O          10.0739   42.9056    9.0010 O.2     1  UNL1       -0.2744
     17 H          10.3218   40.8096    6.6218 H       1  UNL1        0.1563
     18 C           8.3399   42.3945    7.4562 C.3     1  UNL1        0.1117
     19 C           7.3795   42.2270    8.5840 C.ar    1  UNL1       -0.0129
     20 C           7.7900   41.6027    9.7666 C.ar    1  UNL1       -0.0007
     21 C           6.8826   41.4199   10.8141 C.ar    1  UNL1        0.0366
     22 C           5.5588   41.8546   10.6863 C.ar    1  UNL1        0.1387
     23 C           5.1488   42.4754    9.4947 C.ar    1  UNL1        0.0366
     24 C           6.0559   42.6583    8.4472 C.ar    1  UNL1       -0.0007
     25 C           3.2816   41.9105   11.6500 C.3     1  UNL1        0.2525
     26 O           4.6763   41.6573   11.7518 O.3     1  UNL1       -0.4714
     27 C          15.2263   43.1087    6.5242 C.3     1  UNL1        0.1292
     28 C          16.1151   43.5848    7.6613 C.3     1  UNL1        0.0264
     29 C          17.6071   43.7581    5.6719 C.3     1  UNL1        0.0001
     30 C          17.4008   44.1786    7.1151 C.3     1  UNL1        0.0021
@<TRIPOS>BOND
     1    29    30    1
     2    30    28    1
     3    28    27    1
     4    27    11    1
     5     1    15    1
     6     1     2   ar
     7    18    14    1
     8    18    19    1
     9    20    21   ar
    10    22    26    1
    11    22    23   ar
    12    25    26    1
    13    24    19   ar
    14     3     4   ar
    15     5     6   ar
    16     7     8   ar
    17     9    13   ar
    18     9     4   ar
    19    10    11   ar
    20    10     2   ar
    21    11    12   ar
    22    15    14   am
    23     1    12   ar
    24    14    16    2
    25    19    20   ar
    26    21    22   ar
    27    23    24   ar
    28     2     3   ar
    29     4     5   ar
    30     6     7   ar
    31     8     9   ar
    32    10    13   ar
    33    15    17    1
@<TRIPOS>MOLECULE
MolPort-002-614-447 2429038 LN00680422 PubChem-1630520 ZINC000002429038 ZINC02429038
 30 33 0 0 0
SMALL
GASTEIGER

@<TRIPOS>ATOM
      1 C          12.2367   41.6018    7.6924 C.ar    1  UNL1        0.1568
      2 C          13.2600   41.0316    8.4325 C.ar    1  UNL1        0.0689
      3 C          13.3021   40.1907    9.5401 C.ar    1  UNL1        0.0074
      4 C          14.5729   39.8738   10.0503 C.ar    1  UNL1        0.0179
      5 C          14.6980   39.0245   11.1519 C.ar    1  UNL1        0.0015
      6 C          15.9657   38.7165   11.6555 C.ar    1  UNL1        0.0001
      7 C          17.1121   39.2565   11.0623 C.ar    1  UNL1        0.0015
      8 C          17.0022   40.1101    9.9600 C.ar    1  UNL1        0.0192
      9 C          15.7434   40.4265    9.4435 C.ar    1  UNL1        0.0829
     10 C          14.3990   41.5496    7.8897 C.ar    1  UNL1        0.1621
     11 N          14.0897   42.3944    6.8943 N.ar    1  UNL1       -0.2329
     12 N          12.7671   42.4415    6.7693 N.ar    1  UNL1       -0.1527
     13 N          15.6356   41.2683    8.3719 N.ar    1  UNL1       -0.2268
     14 C           9.9351   40.7228    7.0596 C.2     1  UNL1        0.2316
     15 N          10.8267   41.4605    7.9001 N.am    1  UNL1       -0.2676
     16 O          10.2531   40.4300    5.8767 O.2     1  UNL1       -0.2744
     17 H          10.4391   41.9082    8.6866 H       1  UNL1        0.1563
     18 C           8.6052   40.3071    7.5867 C.3     1  UNL1        0.1117
     19 C           7.7172   41.4951    7.7364 C.ar    1  UNL1       -0.0129
     20 C           7.5446   42.3798    6.6667 C.ar    1  UNL1       -0.0007
     21 C           6.7344   43.5093    6.8151 C.ar    1  UNL1        0.0366
     22 C           6.0953   43.7656    8.0331 C.ar    1  UNL1        0.1387
     23 C           6.2762   42.8781    9.1069 C.ar    1  UNL1        0.0366
     24 C           7.0862   41.7486    8.9589 C.ar    1  UNL1       -0.0007
     25 C           3.8914   44.8814    7.9082 C.3     1  UNL1        0.2525
     26 O           5.2918   44.9031    8.1492 O.3     1  UNL1       -0.4714
     27 C          15.0244   43.1526    6.0778 C.3     1  UNL1        0.1292
     28 C          15.7051   44.2193    6.9195 C.3     1  UNL1        0.0264
     29 C          17.8954   43.9031    8.0668 C.3     1  UNL1        0.0001
     30 C          17.2108   44.1568    6.7368 C.3     1  UNL1        0.0021
@<TRIPOS>BOND
     1    29    30    1
     2    30    28    1
     3    28    27    1
     4    27    11    1
     5     1    15    1
     6     1     2   ar
     7    18    14    1
     8    18    19    1
     9    20    21   ar
    10    22    26    1
    11    22    23   ar
    12    25    26    1
    13    24    19   ar
    14     3     4   ar
    15     5     6   ar
    16     7     8   ar
    17     9    13   ar
    18     9     4   ar
    19    10    11   ar
    20    10     2   ar
    21    11    12   ar
    22    15    14   am
    23     1    12   ar
    24    14    16    2
    25    19    20   ar
    26    21    22   ar
    27    23    24   ar
    28     2     3   ar
    29     4     5   ar
    30     6     7   ar
    31     8     9   ar
    32    10    13   ar
    33    15    17    1
@<TRIPOS>MOLECULE
MolPort-002-614-447 2429038 LN00680422 PubChem-1630520 ZINC000002429038 ZINC02429038
 30 33 0 0 0
SMALL
GASTEIGER

@<TRIPOS>ATOM
      1 C          12.4817   40.4991    8.2882 C.ar    1  UNL1        0.1568
      2 C          13.5940   41.2705    7.9919 C.ar    1  UNL1        0.0689
      3 C          13.8542   42.2826    7.0735 C.ar    1  UNL1        0.0074
      4 C          15.1650   42.7888    7.0391 C.ar    1  UNL1        0.0179
      5 C          15.5007   43.8154    6.1537 C.ar    1  UNL1        0.0015
      6 C          16.8078   44.3115    6.1234 C.ar    1  UNL1        0.0001
      7 C          17.7841   43.7834    6.9751 C.ar    1  UNL1        0.0015
      8 C          17.4632   42.7538    7.8654 C.ar    1  UNL1        0.0192
      9 C          16.1617   42.2480    7.9097 C.ar    1  UNL1        0.0829
     10 C          14.5756   40.7716    8.7969 C.ar    1  UNL1        0.1621
     11 N          14.0973   39.7508    9.5245 N.ar    1  UNL1       -0.2329
     12 N          12.8173   39.5685    9.2156 N.ar    1  UNL1       -0.1527
     13 N          15.8505   41.2353    8.7733 N.ar    1  UNL1       -0.2268
     14 C          10.2594   41.6260    7.7759 C.2     1  UNL1        0.2316
     15 N          11.1940   40.5491    7.6633 N.am    1  UNL1       -0.2676
     16 O          10.3427   42.4605    8.7154 O.2     1  UNL1       -0.2744
     17 H          10.9304   39.7785    7.1103 H       1  UNL1        0.1563
     18 C           9.1631   41.7536    6.7754 C.3     1  UNL1        0.1117
     19 C           7.8830   42.0993    7.4566 C.ar    1  UNL1       -0.0129
     20 C           7.2205   41.1409    8.2308 C.ar    1  UNL1       -0.0007
     21 C           6.0057   41.4554    8.8470 C.ar    1  UNL1        0.0366
     22 C           5.4421   42.7264    8.6904 C.ar    1  UNL1        0.1387
     23 C           6.1072   43.6840    7.9069 C.ar    1  UNL1        0.0366
     24 C           7.3219   43.3699    7.2908 C.ar    1  UNL1       -0.0007
     25 C           3.2332   42.0199    9.5504 C.3     1  UNL1        0.2525
     26 O           4.2267   43.0095    9.3195 O.3     1  UNL1       -0.4714
     27 C          14.8359   38.9530   10.4907 C.3     1  UNL1        0.1292
     28 C          15.4970   37.7739    9.7961 C.3     1  UNL1        0.0264
     29 C          17.3570   38.8777   11.0353 C.3     1  UNL1        0.0001
     30 C          16.9918   37.7741   10.0603 C.3     1  UNL1        0.0021
@<TRIPOS>BOND
     1    29    30    1
     2    30    28    1
     3    28    27    1
     4    27    11    1
     5     1    15    1
     6     1     2   ar
     7    18    14    1
     8    18    19    1
     9    20    21   ar
    10    22    26    1
    11    22    23   ar
    12    25    26    1
    13    24    19   ar
    14     3     4   ar
    15     5     6   ar
    16     7     8   ar
    17     9    13   ar
    18     9     4   ar
    19    10    11   ar
    20    10     2   ar
    21    11    12   ar
    22    15    14   am
    23     1    12   ar
    24    14    16    2
    25    19    20   ar
    26    21    22   ar
    27    23    24   ar
    28     2     3   ar
    29     4     5   ar
    30     6     7   ar
    31     8     9   ar
    32    10    13   ar
    33    15    17    1
@<TRIPOS>MOLECULE
MolPort-002-614-447 2429038 LN00680422 PubChem-1630520 ZINC000002429038 ZINC02429038
 30 33 0 0 0
SMALL
GASTEIGER

@<TRIPOS>ATOM
      1 C           4.9128   42.2541    9.7976 C.ar    1  UNL1        0.1568
      2 C           6.1912   41.9012   10.1990 C.ar    1  UNL1        0.0689
      3 C           6.9064   42.0369   11.3846 C.ar    1  UNL1        0.0074
      4 C           8.2403   41.5936   11.3773 C.ar    1  UNL1        0.0179
      5 C           9.0189   41.6837   12.5331 C.ar    1  UNL1        0.0015
      6 C          10.3460   41.2434   12.5169 C.ar    1  UNL1        0.0001
      7 C          10.9006   40.7137   11.3466 C.ar    1  UNL1        0.0015
      8 C          10.1337   40.6192   10.1810 C.ar    1  UNL1        0.0192
      9 C           8.8057   41.0529   10.1807 C.ar    1  UNL1        0.0829
     10 C           6.7704   41.3921    9.0739 C.ar    1  UNL1        0.1621
     11 N           5.9068   41.4469    8.0485 N.ar    1  UNL1       -0.2329
     12 N           4.7675   41.9811    8.4774 N.ar    1  UNL1       -0.1527
     13 N           8.0591   40.9693    9.0388 N.ar    1  UNL1       -0.2268
     14 C           3.2723   42.3774   11.7378 C.2     1  UNL1        0.2316
     15 N           3.9062   42.9143   10.5734 N.am    1  UNL1       -0.2676
     16 O           3.2908   41.1403   11.9733 O.2     1  UNL1       -0.2744
     17 H           3.6274   43.8121   10.2811 H       1  UNL1        0.1563
     18 C           2.5678   43.2933   12.6779 C.3     1  UNL1        0.1117
     19 C           1.2882   42.6786   13.1329 C.ar    1  UNL1       -0.0129
     20 C           1.2225   41.3043   13.3858 C.ar    1  UNL1       -0.0007
     21 C           0.0159   40.7222   13.7855 C.ar    1  UNL1        0.0366
     22 C          -1.1334   41.5068   13.9305 C.ar    1  UNL1        0.1387
     23 C          -1.0648   42.8854   13.6694 C.ar    1  UNL1        0.0366
     24 C           0.1414   43.4677   13.2699 C.ar    1  UNL1       -0.0007
     25 C          -2.4710   39.4838   14.4161 C.3     1  UNL1        0.2525
     26 O          -2.3240   40.8948   14.3317 O.3     1  UNL1       -0.4714
     27 C           6.1523   41.0105    6.6830 C.3     1  UNL1        0.1292
     28 C           6.8284   39.6494    6.6846 C.3     1  UNL1        0.0264
     29 C           9.1536   38.8662    6.2445 C.3     1  UNL1        0.0001
     30 C           7.9656   39.6221    5.6795 C.3     1  UNL1        0.0021
@<TRIPOS>BOND
     1    29    30    1
     2    30    28    1
     3    28    27    1
     4    27    11    1
     5     1    15    1
     6     1     2   ar
     7    18    14    1
     8    18    19    1
     9    20    21   ar
    10    22    26    1
    11    22    23   ar
    12    25    26    1
    13    24    19   ar
    14     3     4   ar
    15     5     6   ar
    16     7     8   ar
    17     9    13   ar
    18     9     4   ar
    19    10    11   ar
    20    10     2   ar
    21    11    12   ar
    22    15    14   am
    23     1    12   ar
    24    14    16    2
    25    19    20   ar
    26    21    22   ar
    27    23    24   ar
    28     2     3   ar
    29     4     5   ar
    30     6     7   ar
    31     8     9   ar
    32    10    13   ar
    33    15    17    1
@<TRIPOS>MOLECULE
MolPort-002-614-447 2429038 LN00680422 PubChem-1630520 ZINC000002429038 ZINC02429038
 30 33 0 0 0
SMALL
GASTEIGER

@<TRIPOS>ATOM
      1 C          13.9871   39.3988    9.2433 C.ar    1  UNL1        0.1568
      2 C          14.7071   40.4787    8.7578 C.ar    1  UNL1        0.0689
      3 C          14.4643   41.4487    7.7905 C.ar    1  UNL1        0.0074
      4 C          15.4981   42.3667    7.5367 C.ar    1  UNL1        0.0179
      5 C          15.3249   43.3784    6.5897 C.ar    1  UNL1        0.0015
      6 C          16.3593   44.2860    6.3407 C.ar    1  UNL1        0.0001
      7 C          17.5700   44.1854    7.0347 C.ar    1  UNL1        0.0015
      8 C          17.7586   43.1762    7.9843 C.ar    1  UNL1        0.0192
      9 C          16.7347   42.2626    8.2463 C.ar    1  UNL1        0.0829
     10 C          15.9058   40.4039    9.4043 C.ar    1  UNL1        0.1621
     11 N          15.9221   39.3375   10.2184 N.ar    1  UNL1       -0.2329
     12 N          14.7550   38.7085   10.1223 N.ar    1  UNL1       -0.1527
     13 N          16.9226   41.2706    9.1677 N.ar    1  UNL1       -0.2268
     14 C          11.4579   39.2843    9.4893 C.2     1  UNL1        0.2316
     15 N          12.6867   38.9619    8.8321 N.am    1  UNL1       -0.2676
     16 O          11.4475   39.6859   10.6829 O.2     1  UNL1       -0.2744
     17 H          12.6342   38.3924    8.0308 H       1  UNL1        0.1563
     18 C          10.1708   39.1291    8.7555 C.3     1  UNL1        0.1117
     19 C           9.5240   40.4586    8.5650 C.ar    1  UNL1       -0.0129
     20 C           9.2849   41.2857    9.6676 C.ar    1  UNL1       -0.0007
     21 C           8.6529   42.5204    9.4936 C.ar    1  UNL1        0.0366
     22 C           8.2513   42.9354    8.2191 C.ar    1  UNL1        0.1387
     23 C           8.4874   42.0992    7.1153 C.ar    1  UNL1        0.0366
     24 C           9.1194   40.8646    7.2889 C.ar    1  UNL1       -0.0007
     25 C           7.7761   45.2255    9.0236 C.3     1  UNL1        0.2525
     26 O           7.6222   44.1753    8.0786 O.3     1  UNL1       -0.4714
     27 C          17.0227   38.9117   11.0685 C.3     1  UNL1        0.1292
     28 C          18.1411   38.3291   10.2203 C.3     1  UNL1        0.0264
     29 C          19.2857   36.3389   11.1913 C.3     1  UNL1        0.0001
     30 C          18.1424   36.8140   10.3143 C.3     1  UNL1        0.0021
@<TRIPOS>BOND
     1    29    30    1
     2    30    28    1
     3    28    27    1
     4    27    11    1
     5     1    15    1
     6     1     2   ar
     7    18    14    1
     8    18    19    1
     9    20    21   ar
    10    22    26    1
    11    22    23   ar
    12    25    26    1
    13    24    19   ar
    14     3     4   ar
    15     5     6   ar
    16     7     8   ar
    17     9    13   ar
    18     9     4   ar
    19    10    11   ar
    20    10     2   ar
    21    11    12   ar
    22    15    14   am
    23     1    12   ar
    24    14    16    2
    25    19    20   ar
    26    21    22   ar
    27    23    24   ar
    28     2     3   ar
    29     4     5   ar
    30     6     7   ar
    31     8     9   ar
    32    10    13   ar
    33    15    17    1
@<TRIPOS>MOLECULE
MolPort-002-614-447 2429038 LN00680422 PubChem-1630520 ZINC000002429038 ZINC02429038
 30 33 0 0 0
SMALL
GASTEIGER

@<TRIPOS>ATOM
      1 C          11.5631   40.3209    7.0922 C.ar    1  UNL1        0.1568
      2 C          12.5854   41.2513    6.9945 C.ar    1  UNL1        0.0689
      3 C          12.8116   42.3606    6.1858 C.ar    1  UNL1        0.0074
      4 C          14.0341   43.0331    6.3559 C.ar    1  UNL1        0.0179
      5 C          14.3286   44.1637    5.5907 C.ar    1  UNL1        0.0015
      6 C          15.5483   44.8254    5.7636 C.ar    1  UNL1        0.0001
      7 C          16.4785   44.3596    6.6993 C.ar    1  UNL1        0.0015
      8 C          16.1984   43.2276    7.4711 C.ar    1  UNL1        0.0192
      9 C          14.9838   42.5559    7.3120 C.ar    1  UNL1        0.0829
     10 C          13.5224   40.8191    7.8865 C.ar    1  UNL1        0.1621
     11 N          13.1060   39.6887    8.4774 N.ar    1  UNL1       -0.2329
     12 N          11.9102   39.3685    7.9927 N.ar    1  UNL1       -0.1527
     13 N          14.7141   41.4439    8.0597 N.ar    1  UNL1       -0.2268
     14 C           9.1261   39.6843    6.7368 C.2     1  UNL1        0.2316
     15 N          10.3658   40.2553    6.3091 N.am    1  UNL1       -0.2676
     16 O           9.0835   38.8778    7.7031 O.2     1  UNL1       -0.2744
     17 H          10.3988   40.6346    5.4012 H       1  UNL1        0.1563
     18 C           7.8693   40.0379    6.0195 C.3     1  UNL1        0.1117
     19 C           7.1847   41.1687    6.7087 C.ar    1  UNL1       -0.0129
     20 C           6.4510   40.9360    7.8768 C.ar    1  UNL1       -0.0007
     21 C           5.7854   41.9907    8.5081 C.ar    1  UNL1        0.0366
     22 C           5.8437   43.2832    7.9753 C.ar    1  UNL1        0.1387
     23 C           6.5762   43.5116    6.7986 C.ar    1  UNL1        0.0366
     24 C           7.2420   42.4572    6.1671 C.ar    1  UNL1       -0.0007
     25 C           3.8827   44.7694    8.2264 C.3     1  UNL1        0.2525
     26 O           5.1676   44.3159    8.6303 O.3     1  UNL1       -0.4714
     27 C          13.8261   38.9164    9.4776 C.3     1  UNL1        0.1292
     28 C          13.5142   39.4449   10.8679 C.3     1  UNL1        0.0264
     29 C          14.3774   37.2627   11.7083 C.3     1  UNL1        0.0001
     30 C          14.3954   38.7674   11.9017 C.3     1  UNL1        0.0021
@<TRIPOS>BOND
     1    29    30    1
     2    30    28    1
     3    28    27    1
     4    27    11    1
     5     1    15    1
     6     1     2   ar
     7    18    14    1
     8    18    19    1
     9    20    21   ar
    10    22    26    1
    11    22    23   ar
    12    25    26    1
    13    24    19   ar
    14     3     4   ar
    15     5     6   ar
    16     7     8   ar
    17     9    13   ar
    18     9     4   ar
    19    10    11   ar
    20    10     2   ar
    21    11    12   ar
    22    15    14   am
    23     1    12   ar
    24    14    16    2
    25    19    20   ar
    26    21    22   ar
    27    23    24   ar
    28     2     3   ar
    29     4     5   ar
    30     6     7   ar
    31     8     9   ar
    32    10    13   ar
    33    15    17    1
@<TRIPOS>MOLECULE
MolPort-002-614-447 2429038 LN00680422 PubChem-1630520 ZINC000002429038 ZINC02429038
 30 33 0 0 0
SMALL
GASTEIGER

@<TRIPOS>ATOM
      1 C          13.4192   40.1370    8.9324 C.ar    1  UNL1        0.1568
      2 C          12.3451   40.7892    9.5163 C.ar    1  UNL1        0.0689
      3 C          11.4003   40.4340   10.4738 C.ar    1  UNL1        0.0074
      4 C          10.4023   41.3802   10.7644 C.ar    1  UNL1        0.0179
      5 C           9.4265   41.1026   11.7241 C.ar    1  UNL1        0.0015
      6 C           8.4350   42.0479   12.0053 C.ar    1  UNL1        0.0001
      7 C           8.4134   43.2720   11.3281 C.ar    1  UNL1        0.0015
      8 C           9.3827   43.5630   10.3630 C.ar    1  UNL1        0.0192
      9 C          10.3812   42.6304   10.0715 C.ar    1  UNL1        0.0829
     10 C          12.2834   41.9873    8.8672 C.ar    1  UNL1        0.1621
     11 N          13.2469   42.0544    7.9358 N.ar    1  UNL1       -0.2329
     12 N          13.9444   40.9230    7.9602 N.ar    1  UNL1       -0.1527
     13 N          11.3229   42.9112    9.1214 N.ar    1  UNL1       -0.2268
     14 C          14.3128   38.3047   10.4538 C.2     1  UNL1        0.2316
     15 N          13.8727   38.8027    9.1872 N.am    1  UNL1       -0.2676
     16 O          14.6719   39.0908   11.3698 O.2     1  UNL1       -0.2744
     17 H          13.8823   38.1764    8.4277 H       1  UNL1        0.1563
     18 C          14.3604   36.8342   10.6875 C.3     1  UNL1        0.1117
     19 C          15.2380   36.1807    9.6750 C.ar    1  UNL1       -0.0129
     20 C          14.7899   35.0486    8.9862 C.ar    1  UNL1       -0.0007
     21 C          15.6228   34.4184    8.0570 C.ar    1  UNL1        0.0366
     22 C          16.9094   34.9110    7.8128 C.ar    1  UNL1        0.1387
     23 C          17.3579   36.0443    8.5112 C.ar    1  UNL1        0.0366
     24 C          16.5255   36.6747    9.4403 C.ar    1  UNL1       -0.0007
     25 C          18.2192   32.9446    7.0811 C.3     1  UNL1        0.2525
     26 O          17.7173   34.2585    6.8777 O.3     1  UNL1       -0.4714
     27 C          13.5028   43.1635    7.0305 C.3     1  UNL1        0.1292
     28 C          14.9112   43.0631    6.4684 C.3     1  UNL1        0.0264
     29 C          16.9980   44.3910    6.1594 C.3     1  UNL1        0.0001
     30 C          15.4832   44.4476    6.2231 C.3     1  UNL1        0.0021
@<TRIPOS>BOND
     1    29    30    1
     2    30    28    1
     3    28    27    1
     4    27    11    1
     5     1    15    1
     6     1     2   ar
     7    18    14    1
     8    18    19    1
     9    20    21   ar
    10    22    26    1
    11    22    23   ar
    12    25    26    1
    13    24    19   ar
    14     3     4   ar
    15     5     6   ar
    16     7     8   ar
    17     9    13   ar
    18     9     4   ar
    19    10    11   ar
    20    10     2   ar
    21    11    12   ar
    22    15    14   am
    23     1    12   ar
    24    14    16    2
    25    19    20   ar
    26    21    22   ar
    27    23    24   ar
    28     2     3   ar
    29     4     5   ar
    30     6     7   ar
    31     8     9   ar
    32    10    13   ar
    33    15    17    1
@<TRIPOS>MOLECULE
MolPort-002-614-447 2429038 LN00680422 PubChem-1630520 ZINC000002429038 ZINC02429038
 30 33 0 0 0
SMALL
GASTEIGER

@<TRIPOS>ATOM
      1 C          11.4372   41.0550    7.6352 C.ar    1  UNL1        0.1568
      2 C          12.6247   41.7360    7.4204 C.ar    1  UNL1        0.0689
      3 C          12.9930   42.8121    6.6191 C.ar    1  UNL1        0.0074
      4 C          14.3492   43.1814    6.6338 C.ar    1  UNL1        0.0179
      5 C          14.7938   44.2603    5.8666 C.ar    1  UNL1        0.0015
      6 C          16.1451   44.6195    5.8842 C.ar    1  UNL1        0.0001
      7 C          17.0569   43.9019    6.6660 C.ar    1  UNL1        0.0015
      8 C          16.6267   42.8179    7.4377 C.ar    1  UNL1        0.0192
      9 C          15.2798   42.4471    7.4328 C.ar    1  UNL1        0.0829
     10 C          13.5451   41.0520    8.1589 C.ar    1  UNL1        0.1621
     11 N          12.9602   40.0110    8.7708 N.ar    1  UNL1       -0.2329
     12 N          11.6699   39.9971    8.4509 N.ar    1  UNL1       -0.1527
     13 N          14.8611   41.3817    8.1798 N.ar    1  UNL1       -0.2268
     14 C           9.0802   42.0117    7.6369 C.2     1  UNL1        0.2316
     15 N          10.1652   41.3067    7.0272 N.am    1  UNL1       -0.2676
     16 O           9.0262   42.1628    8.8860 O.2     1  UNL1       -0.2744
     17 H          10.0260   40.9663    6.1140 H       1  UNL1        0.1563
     18 C           7.9912   42.5628    6.7829 C.3     1  UNL1        0.1117
     19 C           6.7198   42.6406    7.5573 C.ar    1  UNL1       -0.0129
     20 C           6.1003   43.8777    7.7641 C.ar    1  UNL1       -0.0007
     21 C           4.9230   43.9552    8.5140 C.ar    1  UNL1        0.0366
     22 C           4.3594   42.7998    9.0662 C.ar    1  UNL1        0.1387
     23 C           4.9880   41.5603    8.8616 C.ar    1  UNL1        0.0366
     24 C           6.1650   41.4823    8.1118 C.ar    1  UNL1       -0.0007
     25 C           2.8867   42.0617   10.9112 C.3     1  UNL1        0.2525
     26 O           3.1819   42.9109    9.8106 O.3     1  UNL1       -0.4714
     27 C          13.6071   39.0386    9.6376 C.3     1  UNL1        0.1292
     28 C          13.4370   39.4430   11.0927 C.3     1  UNL1        0.0264
     29 C          14.4220   37.2593   11.7815 C.3     1  UNL1        0.0001
     30 C          14.4850   38.7651   11.9565 C.3     1  UNL1        0.0021
@<TRIPOS>BOND
     1    29    30    1
     2    30    28    1
     3    28    27    1
     4    27    11    1
     5     1    15    1
     6     1     2   ar
     7    18    14    1
     8    18    19    1
     9    20    21   ar
    10    22    26    1
    11    22    23   ar
    12    25    26    1
    13    24    19   ar
    14     3     4   ar
    15     5     6   ar
    16     7     8   ar
    17     9    13   ar
    18     9     4   ar
    19    10    11   ar
    20    10     2   ar
    21    11    12   ar
    22    15    14   am
    23     1    12   ar
    24    14    16    2
    25    19    20   ar
    26    21    22   ar
    27    23    24   ar
    28     2     3   ar
    29     4     5   ar
    30     6     7   ar
    31     8     9   ar
    32    10    13   ar
    33    15    17    1
