@<TRIPOS>MOLECULE
MolPort-005-298-839 11738152 CSSS00106918672 MCULE-1333047284 MDLJOFDWBZDZNH-UHFFFAOYSA-N PubChem-42138555 ZINC000011738152 ZINC11738152
 30 33 0 0 0
SMALL
GASTEIGER

@<TRIPOS>ATOM
      1 C           9.4978   42.3676    7.9294 C.ar    1  UNL1        0.1659
      2 C           7.2902   42.8114    7.9702 C.ar    1  UNL1        0.0923
      3 C           7.2450   41.4046    7.9604 C.ar    1  UNL1        0.0886
      4 N           8.5508   43.3291    7.9532 N.ar    1  UNL1       -0.2238
      5 S           8.8316   40.8311    7.9350 S.2     1  UNL1       -0.0481
      6 C           6.1146   43.7098    7.9425 C.ar    1  UNL1        0.0183
      7 C           5.3216   43.9121    9.0825 C.ar    1  UNL1        0.0015
      8 C           4.1918   44.7329    9.0253 C.ar    1  UNL1        0.0000
      9 C           3.8376   45.3504    7.8231 C.ar    1  UNL1        0.0000
     10 C           4.6107   45.1432    6.6782 C.ar    1  UNL1        0.0000
     11 C           5.7407   44.3222    6.7369 C.ar    1  UNL1        0.0015
     12 C          11.8781   41.8021    7.2508 C.2     1  UNL1        0.2704
     13 N          10.9048   42.6244    7.9049 N.am    1  UNL1       -0.2593
     14 O          11.5286   40.7662    6.6229 O.2     1  UNL1       -0.2680
     15 H          11.2288   43.4275    8.3733 H       1  UNL1        0.1571
     16 C          15.4439   42.1692    7.6802 C.ar    1  UNL1        0.0968
     17 C          14.3084   41.3946    7.8532 C.ar    1  UNL1        0.0457
     18 C          13.2963   42.1718    7.3144 C.ar    1  UNL1        0.1559
     19 N          15.0862   43.3216    7.0755 N.ar    1  UNL1       -0.2493
     20 N          13.7861   43.3334    6.8495 N.ar    1  UNL1       -0.1646
     21 C          17.4101   44.1897    7.0914 C.3     1  UNL1        0.0284
     22 C          15.9593   44.4320    6.7002 C.3     1  UNL1        0.1276
     23 C           6.0589   40.5391    8.1299 C.2     1  UNL1        0.2030
     24 O           5.8788   39.5890    7.3204 O.2     1  UNL1       -0.2860
     25 C           5.0639   40.7756    9.1996 C.ar    1  UNL1        0.0395
     26 C           5.4295   40.7266   10.5542 C.ar    1  UNL1        0.0032
     27 C           4.4761   40.9330   11.5551 C.ar    1  UNL1        0.0001
     28 C           3.1458   41.1853   11.2110 C.ar    1  UNL1        0.0000
     29 C           2.7690   41.2290    9.8665 C.ar    1  UNL1        0.0001
     30 C           3.7232   41.0226    8.8660 C.ar    1  UNL1        0.0032
@<TRIPOS>BOND
     1    21    22    1
     2    22    19    1
     3    17    18   ar
     4    18    12    1
     5    12    13   am
     6     1     5   ar
     7     2     4   ar
     8     2     6    1
     9     3     5   ar
    10     3    23    1
    11    23    25    1
    12    26    27   ar
    13    28    29   ar
    14    30    25   ar
    15     7     8   ar
    16     9    10   ar
    17    11     6   ar
    18    19    16   ar
    19    19    20   ar
    20    13     1    1
    21    16    17   ar
    22    18    20   ar
    23    12    14    2
    24     1     4   ar
    25     2     3   ar
    26    23    24    2
    27    25    26   ar
    28    27    28   ar
    29    29    30   ar
    30     6     7   ar
    31     8     9   ar
    32    10    11   ar
    33    13    15    1
@<TRIPOS>MOLECULE
MolPort-005-298-839 11738152 CSSS00106918672 MCULE-1333047284 MDLJOFDWBZDZNH-UHFFFAOYSA-N PubChem-42138555 ZINC000011738152 ZINC11738152
 30 33 0 0 0
SMALL
GASTEIGER

@<TRIPOS>ATOM
      1 C          10.8914   41.8784    9.8899 C.ar    1  UNL1        0.1659
      2 C           8.7919   42.5109    9.3765 C.ar    1  UNL1        0.0923
      3 C           8.5311   41.7566   10.5359 C.ar    1  UNL1        0.0886
      4 N          10.1095   42.5680    9.0327 N.ar    1  UNL1       -0.2238
      5 S          10.0016   41.1689   11.1184 S.2     1  UNL1       -0.0481
      6 C           7.7704   43.1615    8.5261 C.ar    1  UNL1        0.0183
      7 C           6.9542   44.1904    9.0208 C.ar    1  UNL1        0.0015
      8 C           5.9678   44.7645    8.2140 C.ar    1  UNL1        0.0000
      9 C           5.7805   44.3065    6.9074 C.ar    1  UNL1        0.0000
     10 C           6.5766   43.2719    6.4101 C.ar    1  UNL1        0.0000
     11 C           7.5631   42.6988    7.2180 C.ar    1  UNL1        0.0015
     12 C          13.0101   40.5853    9.3553 C.2     1  UNL1        0.2704
     13 N          12.3124   41.7655    9.7698 N.am    1  UNL1       -0.2593
     14 O          12.3785   39.5381    9.0489 O.2     1  UNL1       -0.2680
     15 H          12.8518   42.5595    9.9887 H       1  UNL1        0.1571
     16 C          16.5842   40.1027    9.5186 C.ar    1  UNL1        0.0968
     17 C          15.3167   39.6526    9.8504 C.ar    1  UNL1        0.0457
     18 C          14.4755   40.5985    9.2879 C.ar    1  UNL1        0.1559
     19 N          16.4596   41.2425    8.8066 N.ar    1  UNL1       -0.2493
     20 N          15.1850   41.5521    8.6613 N.ar    1  UNL1       -0.1646
     21 C          17.0696   43.4622    7.8819 C.3     1  UNL1        0.0284
     22 C          17.5355   42.0611    8.2513 C.3     1  UNL1        0.1276
     23 C           7.2481   41.6273   11.2583 C.2     1  UNL1        0.2030
     24 O           7.2655   41.5254   12.5152 O.2     1  UNL1       -0.2860
     25 C           5.9509   41.5820   10.5475 C.ar    1  UNL1        0.0395
     26 C           5.8143   40.8966    9.3299 C.ar    1  UNL1        0.0032
     27 C           4.5883   40.8775    8.6592 C.ar    1  UNL1        0.0001
     28 C           3.4874   41.5486    9.1972 C.ar    1  UNL1        0.0000
     29 C           3.6135   42.2403   10.4044 C.ar    1  UNL1        0.0001
     30 C           4.8401   42.2588   11.0747 C.ar    1  UNL1        0.0032
@<TRIPOS>BOND
     1    21    22    1
     2    22    19    1
     3    17    18   ar
     4    18    12    1
     5    12    13   am
     6     1     5   ar
     7     2     4   ar
     8     2     6    1
     9     3     5   ar
    10     3    23    1
    11    23    25    1
    12    26    27   ar
    13    28    29   ar
    14    30    25   ar
    15     7     8   ar
    16     9    10   ar
    17    11     6   ar
    18    19    16   ar
    19    19    20   ar
    20    13     1    1
    21    16    17   ar
    22    18    20   ar
    23    12    14    2
    24     1     4   ar
    25     2     3   ar
    26    23    24    2
    27    25    26   ar
    28    27    28   ar
    29    29    30   ar
    30     6     7   ar
    31     8     9   ar
    32    10    11   ar
    33    13    15    1
@<TRIPOS>MOLECULE
MolPort-005-298-839 11738152 CSSS00106918672 MCULE-1333047284 MDLJOFDWBZDZNH-UHFFFAOYSA-N PubChem-42138555 ZINC000011738152 ZINC11738152
 30 33 0 0 0
SMALL
GASTEIGER

@<TRIPOS>ATOM
      1 C          10.9609   40.6953   10.6041 C.ar    1  UNL1        0.1659
      2 C          12.7698   40.0145    9.4482 C.ar    1  UNL1        0.0923
      3 C          12.1660   40.8330    8.4753 C.ar    1  UNL1        0.0886
      4 N          12.0861   39.9502   10.6254 N.ar    1  UNL1       -0.2238
      5 S          10.7538   41.4765    9.1374 S.2     1  UNL1       -0.0481
      6 C          14.0040   39.2203    9.2582 C.ar    1  UNL1        0.0183
      7 C          15.2607   39.7210    9.6316 C.ar    1  UNL1        0.0015
      8 C          16.4191   38.9719    9.4069 C.ar    1  UNL1        0.0000
      9 C          16.3324   37.7187    8.7953 C.ar    1  UNL1        0.0000
     10 C          15.0882   37.2175    8.4049 C.ar    1  UNL1        0.0000
     11 C          13.9304   37.9677    8.6307 C.ar    1  UNL1        0.0015
     12 C          10.4181   41.1703   13.0385 C.2     1  UNL1        0.2704
     13 N          10.0509   40.8100   11.7018 N.am    1  UNL1       -0.2593
     14 O          11.6173   41.4289   13.3293 O.2     1  UNL1       -0.2680
     15 H           9.0997   40.6273   11.5251 H       1  UNL1        0.1571
     16 C           7.8356   41.9285   15.4446 C.ar    1  UNL1        0.0968
     17 C           8.6717   42.3711   14.4326 C.ar    1  UNL1        0.0457
     18 C           9.3853   41.2380   14.0781 C.ar    1  UNL1        0.1559
     19 N           8.0688   40.6146   15.6469 N.ar    1  UNL1       -0.2493
     20 N           9.0070   40.1861   14.8236 N.ar    1  UNL1       -0.1646
     21 C           7.9785   38.3251   16.5980 C.3     1  UNL1        0.0284
     22 C           7.4152   39.7390   16.6175 C.3     1  UNL1        0.1276
     23 C          12.7209   41.2376    7.1664 C.2     1  UNL1        0.2030
     24 O          12.2337   40.7346    6.1176 O.2     1  UNL1       -0.2860
     25 C          13.8494   42.1886    7.0550 C.ar    1  UNL1        0.0395
     26 C          14.1538   43.0785    8.0973 C.ar    1  UNL1        0.0032
     27 C          15.2104   43.9847    7.9717 C.ar    1  UNL1        0.0001
     28 C          15.9702   44.0134    6.7997 C.ar    1  UNL1        0.0000
     29 C          15.6718   43.1376    5.7530 C.ar    1  UNL1        0.0001
     30 C          14.6148   42.2315    5.8794 C.ar    1  UNL1        0.0032
@<TRIPOS>BOND
     1    21    22    1
     2    22    19    1
     3    17    18   ar
     4    18    12    1
     5    12    13   am
     6     1     5   ar
     7     2     4   ar
     8     2     6    1
     9     3     5   ar
    10     3    23    1
    11    23    25    1
    12    26    27   ar
    13    28    29   ar
    14    30    25   ar
    15     7     8   ar
    16     9    10   ar
    17    11     6   ar
    18    19    16   ar
    19    19    20   ar
    20    13     1    1
    21    16    17   ar
    22    18    20   ar
    23    12    14    2
    24     1     4   ar
    25     2     3   ar
    26    23    24    2
    27    25    26   ar
    28    27    28   ar
    29    29    30   ar
    30     6     7   ar
    31     8     9   ar
    32    10    11   ar
    33    13    15    1
@<TRIPOS>MOLECULE
MolPort-005-298-839 11738152 CSSS00106918672 MCULE-1333047284 MDLJOFDWBZDZNH-UHFFFAOYSA-N PubChem-42138555 ZINC000011738152 ZINC11738152
 30 33 0 0 0
SMALL
GASTEIGER

@<TRIPOS>ATOM
      1 C          10.3493   42.4548    9.3078 C.ar    1  UNL1        0.1659
      2 C           8.1413   42.8558    9.1183 C.ar    1  UNL1        0.0923
      3 C           8.1230   41.9580   10.2022 C.ar    1  UNL1        0.0886
      4 N           9.3875   43.1206    8.6344 N.ar    1  UNL1       -0.2238
      5 S           9.7151   41.5114   10.5376 S.2     1  UNL1       -0.0481
      6 C           6.9492   43.4509    8.4744 C.ar    1  UNL1        0.0183
      7 C           6.1206   44.3522    9.1604 C.ar    1  UNL1        0.0015
      8 C           4.9767   44.8723    8.5485 C.ar    1  UNL1        0.0000
      9 C           4.6441   44.4864    7.2476 C.ar    1  UNL1        0.0000
     10 C           5.4530   43.5775    6.5612 C.ar    1  UNL1        0.0000
     11 C           6.5971   43.0584    7.1744 C.ar    1  UNL1        0.0015
     12 C          12.3456   42.1786    7.7635 C.2     1  UNL1        0.2704
     13 N          11.7462   42.5426    9.0124 N.am    1  UNL1       -0.2593
     14 O          11.6392   41.7527    6.8100 O.2     1  UNL1       -0.2680
     15 H          12.3407   42.8787    9.7214 H       1  UNL1        0.1571
     16 C          15.7804   42.8214    6.8563 C.ar    1  UNL1        0.0968
     17 C          14.4344   43.0029    6.5832 C.ar    1  UNL1        0.0457
     18 C          13.7976   42.3038    7.5954 C.ar    1  UNL1        0.1559
     19 N          15.8920   42.0595    7.9648 N.ar    1  UNL1       -0.2493
     20 N          14.6955   41.7400    8.4207 N.ar    1  UNL1       -0.1646
     21 C          18.3661   42.2394    7.9914 C.3     1  UNL1        0.0284
     22 C          17.1244   41.6177    8.6144 C.3     1  UNL1        0.1276
     23 C           6.9681   41.5874   11.0470 C.2     1  UNL1        0.2030
     24 O           7.1740   41.2517   12.2451 O.2     1  UNL1       -0.2860
     25 C           5.5859   41.5685   10.5185 C.ar    1  UNL1        0.0395
     26 C           4.5406   42.2141   11.1978 C.ar    1  UNL1        0.0032
     27 C           3.2361   42.1725   10.6979 C.ar    1  UNL1        0.0001
     28 C           2.9631   41.4800    9.5156 C.ar    1  UNL1        0.0000
     29 C           3.9940   40.8275    8.8351 C.ar    1  UNL1        0.0001
     30 C           5.2985   40.8697    9.3358 C.ar    1  UNL1        0.0032
@<TRIPOS>BOND
     1    21    22    1
     2    22    19    1
     3    17    18   ar
     4    18    12    1
     5    12    13   am
     6     1     5   ar
     7     2     4   ar
     8     2     6    1
     9     3     5   ar
    10     3    23    1
    11    23    25    1
    12    26    27   ar
    13    28    29   ar
    14    30    25   ar
    15     7     8   ar
    16     9    10   ar
    17    11     6   ar
    18    19    16   ar
    19    19    20   ar
    20    13     1    1
    21    16    17   ar
    22    18    20   ar
    23    12    14    2
    24     1     4   ar
    25     2     3   ar
    26    23    24    2
    27    25    26   ar
    28    27    28   ar
    29    29    30   ar
    30     6     7   ar
    31     8     9   ar
    32    10    11   ar
    33    13    15    1
@<TRIPOS>MOLECULE
MolPort-005-298-839 11738152 CSSS00106918672 MCULE-1333047284 MDLJOFDWBZDZNH-UHFFFAOYSA-N PubChem-42138555 ZINC000011738152 ZINC11738152
 30 33 0 0 0
SMALL
GASTEIGER

@<TRIPOS>ATOM
      1 C           9.9377   41.4748    8.3703 C.ar    1  UNL1        0.1659
      2 C          10.3973   40.9924   10.5215 C.ar    1  UNL1        0.0923
      3 C          11.4176   40.2534    9.8938 C.ar    1  UNL1        0.0886
      4 N           9.5845   41.6653    9.6589 N.ar    1  UNL1       -0.2238
      5 S          11.2726   40.4737    8.2273 S.2     1  UNL1       -0.0481
      6 C          10.1364   41.0333   11.9776 C.ar    1  UNL1        0.0183
      7 C          11.1808   40.9429   12.9106 C.ar    1  UNL1        0.0015
      8 C          10.9101   40.9429   14.2819 C.ar    1  UNL1        0.0000
      9 C           9.5902   41.0214   14.7330 C.ar    1  UNL1        0.0000
     10 C           8.5417   41.0954   13.8129 C.ar    1  UNL1        0.0000
     11 C           8.8139   41.0958   12.4416 C.ar    1  UNL1        0.0015
     12 C           8.0013   42.7417    7.3255 C.2     1  UNL1        0.2704
     13 N           9.2579   42.0581    7.2549 N.am    1  UNL1       -0.2593
     14 O           7.4056   42.8821    8.4277 O.2     1  UNL1       -0.2680
     15 H           9.6865   41.9841    6.3717 H       1  UNL1        0.1571
     16 C           6.1111   43.6332    4.3816 C.ar    1  UNL1        0.0968
     17 C           6.2594   42.8051    5.4824 C.ar    1  UNL1        0.0457
     18 C           7.4035   43.2829    6.1000 C.ar    1  UNL1        0.1559
     19 N           7.1205   44.5291    4.3824 N.ar    1  UNL1       -0.2493
     20 N           7.9101   44.3253    5.4201 N.ar    1  UNL1       -0.1646
     21 C           8.8196   45.6674    2.9783 C.3     1  UNL1        0.0284
     22 C           7.3615   45.5915    3.4082 C.3     1  UNL1        0.1276
     23 C          12.5472   39.5493   10.5364 C.2     1  UNL1        0.2030
     24 O          13.4141   40.2264   11.1533 O.2     1  UNL1       -0.2860
     25 C          12.7056   38.0804   10.4487 C.ar    1  UNL1        0.0395
     26 C          11.5885   37.2305   10.4246 C.ar    1  UNL1        0.0032
     27 C          11.7522   35.8439   10.3609 C.ar    1  UNL1        0.0001
     28 C          13.0356   35.2932   10.3259 C.ar    1  UNL1        0.0000
     29 C          14.1547   36.1288   10.3570 C.ar    1  UNL1        0.0001
     30 C          13.9901   37.5156   10.4206 C.ar    1  UNL1        0.0032
@<TRIPOS>BOND
     1    21    22    1
     2    22    19    1
     3    17    18   ar
     4    18    12    1
     5    12    13   am
     6     1     5   ar
     7     2     4   ar
     8     2     6    1
     9     3     5   ar
    10     3    23    1
    11    23    25    1
    12    26    27   ar
    13    28    29   ar
    14    30    25   ar
    15     7     8   ar
    16     9    10   ar
    17    11     6   ar
    18    19    16   ar
    19    19    20   ar
    20    13     1    1
    21    16    17   ar
    22    18    20   ar
    23    12    14    2
    24     1     4   ar
    25     2     3   ar
    26    23    24    2
    27    25    26   ar
    28    27    28   ar
    29    29    30   ar
    30     6     7   ar
    31     8     9   ar
    32    10    11   ar
    33    13    15    1
@<TRIPOS>MOLECULE
MolPort-005-298-839 11738152 CSSS00106918672 MCULE-1333047284 MDLJOFDWBZDZNH-UHFFFAOYSA-N PubChem-42138555 ZINC000011738152 ZINC11738152
 30 33 0 0 0
SMALL
GASTEIGER

@<TRIPOS>ATOM
      1 C          12.7003   41.2847    8.2663 C.ar    1  UNL1        0.1659
      2 C          10.7810   40.6766    9.2755 C.ar    1  UNL1        0.0923
      3 C          11.1490   39.4410    8.7106 C.ar    1  UNL1        0.0886
      4 N          11.6554   41.6899    9.0185 N.ar    1  UNL1       -0.2238
      5 S          12.6045   39.6568    7.8849 S.2     1  UNL1       -0.0481
      6 C           9.5417   40.9371   10.0411 C.ar    1  UNL1        0.0183
      7 C           8.3343   41.2453    9.3955 C.ar    1  UNL1        0.0015
      8 C           7.1841   41.5278   10.1376 C.ar    1  UNL1        0.0000
      9 C           7.2336   41.5161   11.5338 C.ar    1  UNL1        0.0000
     10 C           8.4340   41.2263   12.1869 C.ar    1  UNL1        0.0000
     11 C           9.5836   40.9436   11.4434 C.ar    1  UNL1        0.0015
     12 C          13.7342   42.9830    6.6874 C.2     1  UNL1        0.2704
     13 N          13.7671   42.1390    7.8442 N.am    1  UNL1       -0.2593
     14 O          12.7111   43.0283    5.9522 O.2     1  UNL1       -0.2680
     15 H          14.5862   42.1476    8.3902 H       1  UNL1        0.1571
     16 C          16.2221   45.3428    5.5579 C.ar    1  UNL1        0.0968
     17 C          14.8955   44.9438    5.5729 C.ar    1  UNL1        0.0457
     18 C          14.9057   43.8021    6.3572 C.ar    1  UNL1        0.1559
     19 N          16.9389   44.4693    6.2961 N.ar    1  UNL1       -0.2493
     20 N          16.1502   43.5309    6.7850 N.ar    1  UNL1       -0.1646
     21 C          18.7394   43.8969    7.9038 C.3     1  UNL1        0.0284
     22 C          18.3771   44.5002    6.5542 C.3     1  UNL1        0.1276
     23 C          10.5121   38.1249    8.9271 C.2     1  UNL1        0.2030
     24 O           9.3610   37.9210    8.4539 O.2     1  UNL1       -0.2860
     25 C          11.1721   37.0551    9.7084 C.ar    1  UNL1        0.0395
     26 C          12.5110   36.7051    9.4723 C.ar    1  UNL1        0.0032
     27 C          13.1168   35.6799   10.2041 C.ar    1  UNL1        0.0001
     28 C          12.3874   34.9908   11.1761 C.ar    1  UNL1        0.0000
     29 C          11.0522   35.3254   11.4145 C.ar    1  UNL1        0.0001
     30 C          10.4471   36.3510   10.6821 C.ar    1  UNL1        0.0032
@<TRIPOS>BOND
     1    21    22    1
     2    22    19    1
     3    17    18   ar
     4    18    12    1
     5    12    13   am
     6     1     5   ar
     7     2     4   ar
     8     2     6    1
     9     3     5   ar
    10     3    23    1
    11    23    25    1
    12    26    27   ar
    13    28    29   ar
    14    30    25   ar
    15     7     8   ar
    16     9    10   ar
    17    11     6   ar
    18    19    16   ar
    19    19    20   ar
    20    13     1    1
    21    16    17   ar
    22    18    20   ar
    23    12    14    2
    24     1     4   ar
    25     2     3   ar
    26    23    24    2
    27    25    26   ar
    28    27    28   ar
    29    29    30   ar
    30     6     7   ar
    31     8     9   ar
    32    10    11   ar
    33    13    15    1
@<TRIPOS>MOLECULE
MolPort-005-298-839 11738152 CSSS00106918672 MCULE-1333047284 MDLJOFDWBZDZNH-UHFFFAOYSA-N PubChem-42138555 ZINC000011738152 ZINC11738152
 30 33 0 0 0
SMALL
GASTEIGER

@<TRIPOS>ATOM
      1 C          12.7247   40.7823    7.8957 C.ar    1  UNL1        0.1659
      2 C          10.5420   40.2664    8.0992 C.ar    1  UNL1        0.0923
      3 C          11.1048   39.0000    8.3457 C.ar    1  UNL1        0.0886
      4 N          11.4576   41.2450    7.8514 N.ar    1  UNL1       -0.2238
      5 S          12.7829   39.1463    8.2487 S.2     1  UNL1       -0.0481
      6 C           9.0943   40.5675    8.0410 C.ar    1  UNL1        0.0183
      7 C           8.3573   40.3909    6.8599 C.ar    1  UNL1        0.0015
      8 C           6.9995   40.7191    6.8141 C.ar    1  UNL1        0.0000
      9 C           6.3682   41.2387    7.9471 C.ar    1  UNL1        0.0000
     10 C           7.0960   41.4337    9.1234 C.ar    1  UNL1        0.0000
     11 C           8.4540   41.1046    9.1679 C.ar    1  UNL1        0.0015
     12 C          15.1354   41.4361    8.3515 C.2     1  UNL1        0.2704
     13 N          13.8844   41.5892    7.6711 N.am    1  UNL1       -0.2593
     14 O          15.2915   40.5324    9.2166 O.2     1  UNL1       -0.2680
     15 H          13.8175   42.3041    6.9976 H       1  UNL1        0.1571
     16 C          18.1320   43.4303    8.0737 C.ar    1  UNL1        0.0968
     17 C          17.4205   42.4593    8.7594 C.ar    1  UNL1        0.0457
     18 C          16.2449   42.3426    8.0363 C.ar    1  UNL1        0.1559
     19 N          17.3927   43.8369    7.0202 N.ar    1  UNL1       -0.2493
     20 N          16.2464   43.1838    6.9886 N.ar    1  UNL1       -0.1646
     21 C          16.5314   45.4257    5.3207 C.3     1  UNL1        0.0284
     22 C          17.7497   44.8465    6.0256 C.3     1  UNL1        0.1276
     23 C          10.4093   37.7762    8.7965 C.2     1  UNL1        0.2030
     24 O           9.2212   37.5791    8.4222 O.2     1  UNL1       -0.2860
     25 C          11.0552   36.7957    9.6974 C.ar    1  UNL1        0.0395
     26 C          12.3691   36.3568    9.4695 C.ar    1  UNL1        0.0032
     27 C          12.9609   35.4161   10.3171 C.ar    1  UNL1        0.0001
     28 C          12.2420   34.9009   11.3986 C.ar    1  UNL1        0.0000
     29 C          10.9313   35.3246   11.6308 C.ar    1  UNL1        0.0001
     30 C          10.3402   36.2657   10.7826 C.ar    1  UNL1        0.0032
@<TRIPOS>BOND
     1    21    22    1
     2    22    19    1
     3    17    18   ar
     4    18    12    1
     5    12    13   am
     6     1     5   ar
     7     2     4   ar
     8     2     6    1
     9     3     5   ar
    10     3    23    1
    11    23    25    1
    12    26    27   ar
    13    28    29   ar
    14    30    25   ar
    15     7     8   ar
    16     9    10   ar
    17    11     6   ar
    18    19    16   ar
    19    19    20   ar
    20    13     1    1
    21    16    17   ar
    22    18    20   ar
    23    12    14    2
    24     1     4   ar
    25     2     3   ar
    26    23    24    2
    27    25    26   ar
    28    27    28   ar
    29    29    30   ar
    30     6     7   ar
    31     8     9   ar
    32    10    11   ar
    33    13    15    1
@<TRIPOS>MOLECULE
MolPort-005-298-839 11738152 CSSS00106918672 MCULE-1333047284 MDLJOFDWBZDZNH-UHFFFAOYSA-N PubChem-42138555 ZINC000011738152 ZINC11738152
 30 33 0 0 0
SMALL
GASTEIGER

@<TRIPOS>ATOM
      1 C          10.7574   39.0696    8.0885 C.ar    1  UNL1        0.1659
      2 C          10.5708   40.3672    9.9197 C.ar    1  UNL1        0.0923
      3 C          11.7308   39.6470   10.2616 C.ar    1  UNL1        0.0886
      4 N          10.0437   40.0333    8.7080 N.ar    1  UNL1       -0.2238
      5 S          12.0774   38.5843    8.9977 S.2     1  UNL1       -0.0481
      6 C           9.8968   41.3686   10.7757 C.ar    1  UNL1        0.0183
      7 C           9.0494   40.9820   11.8254 C.ar    1  UNL1        0.0015
      8 C           8.3904   41.9432   12.5970 C.ar    1  UNL1        0.0000
      9 C           8.5638   43.3012   12.3182 C.ar    1  UNL1        0.0000
     10 C           9.3925   43.6969   11.2655 C.ar    1  UNL1        0.0000
     11 C          10.0513   42.7345   10.4948 C.ar    1  UNL1        0.0015
     12 C          10.3815   39.2730    5.5858 C.2     1  UNL1        0.2704
     13 N          10.4313   38.5254    6.8064 N.am    1  UNL1       -0.2593
     14 O          10.6461   40.5057    5.5743 O.2     1  UNL1       -0.2680
     15 H          10.2255   37.5638    6.7595 H       1  UNL1        0.1571
     16 C           9.2848   38.1519    2.3339 C.ar    1  UNL1        0.0968
     17 C           9.4255   39.1927    3.2374 C.ar    1  UNL1        0.0457
     18 C          10.0180   38.5942    4.3371 C.ar    1  UNL1        0.1559
     19 N           9.7735   37.0276    2.8987 N.ar    1  UNL1       -0.2493
     20 N          10.2203   37.2848    4.1135 N.ar    1  UNL1       -0.1646
     21 C          10.6509   34.7199    3.1410 C.3     1  UNL1        0.0284
     22 C           9.8284   35.6922    2.3075 C.3     1  UNL1        0.1276
     23 C          12.6251   39.8728   11.4165 C.2     1  UNL1        0.2030
     24 O          12.1398   40.3540   12.4764 O.2     1  UNL1       -0.2860
     25 C          14.0746   39.5811   11.3528 C.ar    1  UNL1        0.0395
     26 C          14.8823   40.1340   10.3464 C.ar    1  UNL1        0.0032
     27 C          16.2463   39.8353   10.2861 C.ar    1  UNL1        0.0001
     28 C          16.8153   38.9760   11.2294 C.ar    1  UNL1        0.0000
     29 C          16.0198   38.4140   12.2309 C.ar    1  UNL1        0.0001
     30 C          14.6556   38.7134   12.2905 C.ar    1  UNL1        0.0032
@<TRIPOS>BOND
     1    21    22    1
     2    22    19    1
     3    17    18   ar
     4    18    12    1
     5    12    13   am
     6     1     5   ar
     7     2     4   ar
     8     2     6    1
     9     3     5   ar
    10     3    23    1
    11    23    25    1
    12    26    27   ar
    13    28    29   ar
    14    30    25   ar
    15     7     8   ar
    16     9    10   ar
    17    11     6   ar
    18    19    16   ar
    19    19    20   ar
    20    13     1    1
    21    16    17   ar
    22    18    20   ar
    23    12    14    2
    24     1     4   ar
    25     2     3   ar
    26    23    24    2
    27    25    26   ar
    28    27    28   ar
    29    29    30   ar
    30     6     7   ar
    31     8     9   ar
    32    10    11   ar
    33    13    15    1
@<TRIPOS>MOLECULE
MolPort-005-298-839 11738152 CSSS00106918672 MCULE-1333047284 MDLJOFDWBZDZNH-UHFFFAOYSA-N PubChem-42138555 ZINC000011738152 ZINC11738152
 30 33 0 0 0
SMALL
GASTEIGER

@<TRIPOS>ATOM
      1 C          10.9760   41.0438   10.0527 C.ar    1  UNL1        0.1659
      2 C           9.0546   42.0432    9.4352 C.ar    1  UNL1        0.0923
      3 C           8.6668   41.5513   10.6957 C.ar    1  UNL1        0.0886
      4 N          10.3417   41.7519    9.0946 N.ar    1  UNL1       -0.2238
      5 S           9.9868   40.7460   11.3709 S.2     1  UNL1       -0.0481
      6 C           8.1784   42.7682    8.4883 C.ar    1  UNL1        0.0183
      7 C           7.9120   42.2643    7.2059 C.ar    1  UNL1        0.0015
      8 C           7.1144   42.9837    6.3116 C.ar    1  UNL1        0.0000
      9 C           6.5848   44.2207    6.6879 C.ar    1  UNL1        0.0000
     10 C           6.8568   44.7392    7.9561 C.ar    1  UNL1        0.0000
     11 C           7.6545   44.0184    8.8497 C.ar    1  UNL1        0.0015
     12 C          12.7493   39.2295    9.9514 C.2     1  UNL1        0.2704
     13 N          12.3327   40.5998    9.9600 N.am    1  UNL1       -0.2593
     14 O          11.9018   38.2984   10.0165 O.2     1  UNL1       -0.2680
     15 H          13.0333   41.2886    9.8974 H       1  UNL1        0.1571
     16 C          16.0803   37.9165    9.4884 C.ar    1  UNL1        0.0968
     17 C          14.7135   37.7444    9.3416 C.ar    1  UNL1        0.0457
     18 C          14.1784   38.9094    9.8662 C.ar    1  UNL1        0.1559
     19 N          16.2998   39.1165   10.0657 N.ar    1  UNL1       -0.2493
     20 N          15.1531   39.7266   10.2992 N.ar    1  UNL1       -0.1646
     21 C          18.7214   38.6923   10.3977 C.3     1  UNL1        0.0284
     22 C          17.5902   39.7106   10.4089 C.3     1  UNL1        0.1276
     23 C           7.4083   41.8230   11.4217 C.2     1  UNL1        0.2030
     24 O           7.4692   42.2092   12.6207 O.2     1  UNL1       -0.2860
     25 C           6.0835   41.6241   10.7929 C.ar    1  UNL1        0.0395
     26 C           5.9658   41.0668    9.5097 C.ar    1  UNL1        0.0032
     27 C           4.7097   40.9019    8.9194 C.ar    1  UNL1        0.0001
     28 C           3.5586   41.2980    9.6049 C.ar    1  UNL1        0.0000
     29 C           3.6640   41.8607   10.8792 C.ar    1  UNL1        0.0001
     30 C           4.9208   42.0252   11.4689 C.ar    1  UNL1        0.0032
@<TRIPOS>BOND
     1    21    22    1
     2    22    19    1
     3    17    18   ar
     4    18    12    1
     5    12    13   am
     6     1     5   ar
     7     2     4   ar
     8     2     6    1
     9     3     5   ar
    10     3    23    1
    11    23    25    1
    12    26    27   ar
    13    28    29   ar
    14    30    25   ar
    15     7     8   ar
    16     9    10   ar
    17    11     6   ar
    18    19    16   ar
    19    19    20   ar
    20    13     1    1
    21    16    17   ar
    22    18    20   ar
    23    12    14    2
    24     1     4   ar
    25     2     3   ar
    26    23    24    2
    27    25    26   ar
    28    27    28   ar
    29    29    30   ar
    30     6     7   ar
    31     8     9   ar
    32    10    11   ar
    33    13    15    1
@<TRIPOS>MOLECULE
MolPort-005-298-839 11738152 CSSS00106918672 MCULE-1333047284 MDLJOFDWBZDZNH-UHFFFAOYSA-N PubChem-42138555 ZINC000011738152 ZINC11738152
 30 33 0 0 0
SMALL
GASTEIGER

@<TRIPOS>ATOM
      1 C          10.8862   41.8940    8.2091 C.ar    1  UNL1        0.1659
      2 C          13.0791   42.0625    7.7245 C.ar    1  UNL1        0.0923
      3 C          13.1236   40.9918    8.6371 C.ar    1  UNL1        0.0886
      4 N          11.8271   42.5510    7.4985 N.ar    1  UNL1       -0.2238
      5 S          11.5469   40.6739    9.1467 S.2     1  UNL1       -0.0481
      6 C          14.2526   42.6894    7.0765 C.ar    1  UNL1        0.0183
      7 C          15.4728   42.8330    7.7546 C.ar    1  UNL1        0.0015
      8 C          16.5574   43.4642    7.1392 C.ar    1  UNL1        0.0000
      9 C          16.4279   43.9686    5.8427 C.ar    1  UNL1        0.0000
     10 C          15.2130   43.8453    5.1643 C.ar    1  UNL1        0.0000
     11 C          14.1291   43.2134    5.7810 C.ar    1  UNL1        0.0015
     12 C           8.7985   43.0157    9.1199 C.2     1  UNL1        0.2704
     13 N           9.4890   42.1977    8.1683 N.am    1  UNL1       -0.2593
     14 O           9.4169   43.5456   10.0824 O.2     1  UNL1       -0.2680
     15 H           8.9618   41.8154    7.4299 H       1  UNL1        0.1571
     16 C           5.4102   44.0139    8.3734 C.ar    1  UNL1        0.0968
     17 C           6.7677   44.2075    8.1759 C.ar    1  UNL1        0.0457
     18 C           7.3560   43.2371    8.9703 C.ar    1  UNL1        0.1559
     19 N           5.2463   42.9876    9.2345 N.ar    1  UNL1       -0.2493
     20 N           6.4200   42.5096    9.6027 N.ar    1  UNL1       -0.1646
     21 C           4.0240   42.1359   11.2181 C.3     1  UNL1        0.0284
     22 C           3.9846   42.4386    9.7270 C.3     1  UNL1        0.1276
     23 C          14.2860   40.1446    8.9776 C.2     1  UNL1        0.2030
     24 O          15.4451   40.5722    8.7245 O.2     1  UNL1       -0.2860
     25 C          14.1262   38.8002    9.5753 C.ar    1  UNL1        0.0395
     26 C          13.8486   37.6794    8.7767 C.ar    1  UNL1        0.0032
     27 C          13.6812   36.4185    9.3558 C.ar    1  UNL1        0.0001
     28 C          13.7845   36.2668   10.7407 C.ar    1  UNL1        0.0000
     29 C          14.0529   37.3762   11.5462 C.ar    1  UNL1        0.0001
     30 C          14.2204   38.6371   10.9661 C.ar    1  UNL1        0.0032
@<TRIPOS>BOND
     1    21    22    1
     2    22    19    1
     3    17    18   ar
     4    18    12    1
     5    12    13   am
     6     1     5   ar
     7     2     4   ar
     8     2     6    1
     9     3     5   ar
    10     3    23    1
    11    23    25    1
    12    26    27   ar
    13    28    29   ar
    14    30    25   ar
    15     7     8   ar
    16     9    10   ar
    17    11     6   ar
    18    19    16   ar
    19    19    20   ar
    20    13     1    1
    21    16    17   ar
    22    18    20   ar
    23    12    14    2
    24     1     4   ar
    25     2     3   ar
    26    23    24    2
    27    25    26   ar
    28    27    28   ar
    29    29    30   ar
    30     6     7   ar
    31     8     9   ar
    32    10    11   ar
    33    13    15    1
