@<TRIPOS>MOLECULE
MolPort-007-595-935 MCULE-7294970288 PubChem-22423740
 21 22 0 0 0
SMALL
GASTEIGER

@<TRIPOS>ATOM
      1 C          12.3151   41.3649    6.7381 C.2     1  UNL1        0.2509
      2 N          11.7670   41.0821    5.4430 N.am    1  UNL1       -0.2595
      3 O          11.6978   41.0241    7.7834 O.2     1  UNL1       -0.2698
      4 H          12.2933   41.3722    4.6632 H       1  UNL1        0.1571
      5 C          13.6101   42.0596    6.8475 C.ar    1  UNL1        0.0538
      6 C          14.5717   41.6281    7.7738 C.ar    1  UNL1        0.0054
      7 C          15.7999   42.2877    7.8770 C.ar    1  UNL1        0.0115
      8 C          16.0756   43.3835    7.0547 C.ar    1  UNL1        0.0577
      9 C          15.1238   43.8198    6.1296 C.ar    1  UNL1        0.0115
     10 C          13.8956   43.1604    6.0263 C.ar    1  UNL1        0.0054
     11 CL         17.6132   44.2092    7.1839 Cl      1  UNL1       -0.0822
     12 C           8.4595   39.6315    5.5684 C.ar    1  UNL1        0.1514
     13 C          10.5264   40.4176    5.1772 C.ar    1  UNL1        0.1845
     14 N           8.5514   39.1825    4.2857 N.ar    1  UNL1       -0.1917
     15 N           9.5311   40.3158    6.0797 N.ar    1  UNL1       -0.2076
     16 S          10.0560   39.6636    3.7706 S.2     1  UNL1        0.0492
     17 C           7.2292   39.3965    6.3780 C.3     1  UNL1        0.0956
     18 C           6.6983   41.3115    7.8529 C.3     1  UNL1        0.0322
     19 C           6.4150   40.6728    6.5098 C.3     1  UNL1        0.1182
     20 O           6.7603   41.5644    5.4937 O.3     1  UNL1       -0.3840
     21 H           7.7033   41.7816    5.5607 H       1  UNL1        0.2104
@<TRIPOS>BOND
     1    19    18    1
     2    19    17    1
     3    19    20    1
     4    17    12    1
     5    12    15   ar
     6    13    16   ar
     7    13     2    1
     8     1     5    1
     9     6     7   ar
    10     8     9   ar
    11     8    11    1
    12    10     5   ar
    13    14    16   ar
    14     2     1   am
    15    12    14   ar
    16    13    15   ar
    17     1     3    2
    18     5     6   ar
    19     7     8   ar
    20     9    10   ar
    21     2     4    1
    22    20    21    1
@<TRIPOS>MOLECULE
MolPort-007-595-935 MCULE-7294970288 PubChem-22423740
 21 22 0 0 0
SMALL
GASTEIGER

@<TRIPOS>ATOM
      1 C          13.4915   41.5265    7.6678 C.2     1  UNL1        0.2509
      2 N          12.4815   41.8826    6.7135 N.am    1  UNL1       -0.2595
      3 O          13.2711   40.6344    8.5313 O.2     1  UNL1       -0.2698
      4 H          12.7102   42.5860    6.0638 H       1  UNL1        0.1571
      5 C          14.7972   42.2090    7.6387 C.ar    1  UNL1        0.0538
      6 C          15.8771   41.7085    8.3817 C.ar    1  UNL1        0.0054
      7 C          17.1154   42.3566    8.3536 C.ar    1  UNL1        0.0115
      8 C          17.2829   43.5098    7.5823 C.ar    1  UNL1        0.0577
      9 C          16.2129   44.0150    6.8393 C.ar    1  UNL1        0.0115
     10 C          14.9747   43.3670    6.8674 C.ar    1  UNL1        0.0054
     11 CL         18.8331   44.3211    7.5471 Cl      1  UNL1       -0.0822
     12 C           9.5392   39.9586    5.8761 C.ar    1  UNL1        0.1514
     13 C          11.1716   41.3114    6.6166 C.ar    1  UNL1        0.1845
     14 N           8.7796   40.6259    6.7888 N.ar    1  UNL1       -0.1917
     15 N          10.8577   40.3154    5.7652 N.ar    1  UNL1       -0.2076
     16 S           9.8144   41.7229    7.4866 S.2     1  UNL1        0.0492
     17 C           8.9556   38.8700    5.0402 C.3     1  UNL1        0.0956
     18 C           9.9672   37.3333    3.3852 C.3     1  UNL1        0.0322
     19 C           9.6586   38.7825    3.6959 C.3     1  UNL1        0.1182
     20 O           8.8379   39.3036    2.6951 O.3     1  UNL1       -0.3840
     21 H           8.0133   38.7943    2.6554 H       1  UNL1        0.2104
@<TRIPOS>BOND
     1    19    18    1
     2    19    17    1
     3    19    20    1
     4    17    12    1
     5    12    15   ar
     6    13    16   ar
     7    13     2    1
     8     1     5    1
     9     6     7   ar
    10     8     9   ar
    11     8    11    1
    12    10     5   ar
    13    14    16   ar
    14     2     1   am
    15    12    14   ar
    16    13    15   ar
    17     1     3    2
    18     5     6   ar
    19     7     8   ar
    20     9    10   ar
    21     2     4    1
    22    20    21    1
@<TRIPOS>MOLECULE
MolPort-007-595-935 MCULE-7294970288 PubChem-22423740
 21 22 0 0 0
SMALL
GASTEIGER

@<TRIPOS>ATOM
      1 C          13.6844   39.7465   10.6668 C.2     1  UNL1        0.2509
      2 N          14.7930   39.6249    9.7647 N.am    1  UNL1       -0.2595
      3 O          13.7013   39.1638   11.7849 O.2     1  UNL1       -0.2698
      4 H          14.7234   40.1017    8.9062 H       1  UNL1        0.1571
      5 C          12.5164   40.5591   10.2836 C.ar    1  UNL1        0.0538
      6 C          11.3477   40.5336   11.0598 C.ar    1  UNL1        0.0054
      7 C          10.2401   41.3048   10.6955 C.ar    1  UNL1        0.0115
      8 C          10.2930   42.1071    9.5526 C.ar    1  UNL1        0.0577
      9 C          11.4527   42.1385    8.7740 C.ar    1  UNL1        0.0115
     10 C          12.5603   41.3674    9.1381 C.ar    1  UNL1        0.0054
     11 CL          8.9063   43.0724    9.0966 Cl      1  UNL1       -0.0822
     12 C          17.4729   37.2005    9.7854 C.ar    1  UNL1        0.1514
     13 C          15.9915   38.8753    9.9949 C.ar    1  UNL1        0.1845
     14 N          18.1888   37.9227   10.6917 N.ar    1  UNL1       -0.1917
     15 N          16.2635   37.7052    9.3847 N.ar    1  UNL1       -0.2076
     16 S          17.2529   39.2582   11.0100 S.2     1  UNL1        0.0492
     17 C          17.9975   35.9149    9.2413 C.3     1  UNL1        0.0956
     18 C          17.5502   33.9788    7.7662 C.3     1  UNL1        0.0322
     19 C          16.9423   35.2088    8.4063 C.3     1  UNL1        0.1182
     20 O          15.8728   34.8256    9.2163 O.3     1  UNL1       -0.3840
     21 H          16.1894   34.2205    9.9051 H       1  UNL1        0.2104
@<TRIPOS>BOND
     1    19    18    1
     2    19    17    1
     3    19    20    1
     4    17    12    1
     5    12    15   ar
     6    13    16   ar
     7    13     2    1
     8     1     5    1
     9     6     7   ar
    10     8     9   ar
    11     8    11    1
    12    10     5   ar
    13    14    16   ar
    14     2     1   am
    15    12    14   ar
    16    13    15   ar
    17     1     3    2
    18     5     6   ar
    19     7     8   ar
    20     9    10   ar
    21     2     4    1
    22    20    21    1
@<TRIPOS>MOLECULE
MolPort-007-595-935 MCULE-7294970288 PubChem-22423740
 21 22 0 0 0
SMALL
GASTEIGER

@<TRIPOS>ATOM
      1 C           5.8337   40.2485    5.5352 C.2     1  UNL1        0.2509
      2 N           4.9055   39.1574    5.4614 N.am    1  UNL1       -0.2595
      3 O           5.9806   41.0319    4.5582 O.2     1  UNL1       -0.2698
      4 H           4.8337   38.5788    6.2547 H       1  UNL1        0.1571
      5 C           6.6221   40.4553    6.7629 C.ar    1  UNL1        0.0538
      6 C           7.9246   39.9435    6.8654 C.ar    1  UNL1        0.0054
      7 C           8.6717   40.1401    8.0305 C.ar    1  UNL1        0.0115
      8 C           8.1220   40.8498    9.1014 C.ar    1  UNL1        0.0577
      9 C           6.8258   41.3629    9.0078 C.ar    1  UNL1        0.0115
     10 C           6.0786   41.1664    7.8429 C.ar    1  UNL1        0.0054
     11 CL          9.0574   41.0958   10.5599 Cl      1  UNL1       -0.0822
     12 C           3.4709   37.8628    2.4076 C.ar    1  UNL1        0.1514
     13 C           4.0732   38.8302    4.3427 C.ar    1  UNL1        0.1845
     14 N           2.3079   38.5444    2.6039 N.ar    1  UNL1       -0.1917
     15 N           4.4549   38.0015    3.3512 N.ar    1  UNL1       -0.2076
     16 S           2.5296   39.3670    4.0304 S.2     1  UNL1        0.0492
     17 C           3.6558   36.9874    1.2145 C.3     1  UNL1        0.0956
     18 C           3.3774   34.5284    1.2243 C.3     1  UNL1        0.0322
     19 C           4.2993   35.6673    1.6051 C.3     1  UNL1        0.1182
     20 O           5.5168   35.5165    0.9405 O.3     1  UNL1       -0.3840
     21 H           5.3652   35.5241   -0.0176 H       1  UNL1        0.2104
@<TRIPOS>BOND
     1    19    18    1
     2    19    17    1
     3    19    20    1
     4    17    12    1
     5    12    15   ar
     6    13    16   ar
     7    13     2    1
     8     1     5    1
     9     6     7   ar
    10     8     9   ar
    11     8    11    1
    12    10     5   ar
    13    14    16   ar
    14     2     1   am
    15    12    14   ar
    16    13    15   ar
    17     1     3    2
    18     5     6   ar
    19     7     8   ar
    20     9    10   ar
    21     2     4    1
    22    20    21    1
@<TRIPOS>MOLECULE
MolPort-007-595-935 MCULE-7294970288 PubChem-22423740
 21 22 0 0 0
SMALL
GASTEIGER

@<TRIPOS>ATOM
      1 C           8.0478   41.3309    9.3730 C.2     1  UNL1        0.2509
      2 N           9.0537   41.0979   10.3687 N.am    1  UNL1       -0.2595
      3 O           8.3542   41.3741    8.1506 O.2     1  UNL1       -0.2698
      4 H           8.7555   41.0750   11.3067 H       1  UNL1        0.1571
      5 C           6.6450   41.5215    9.7822 C.ar    1  UNL1        0.0538
      6 C           6.2762   41.4040   11.1309 C.ar    1  UNL1        0.0054
      7 C           4.9452   41.5849   11.5182 C.ar    1  UNL1        0.0115
      8 C           3.9734   41.8846   10.5598 C.ar    1  UNL1        0.0577
      9 C           4.3318   42.0034    9.2146 C.ar    1  UNL1        0.0115
     10 C           5.6627   41.8225    8.8272 C.ar    1  UNL1        0.0054
     11 CL          2.3072   42.1110   11.0447 Cl      1  UNL1       -0.0822
     12 C          12.4335   39.8406   10.1320 C.ar    1  UNL1        0.1514
     13 C          10.4508   40.8952   10.1273 C.ar    1  UNL1        0.1845
     14 N          12.8668   40.9738    9.5124 N.ar    1  UNL1       -0.1917
     15 N          11.1089   39.7727   10.4769 N.ar    1  UNL1       -0.2076
     16 S          11.5202   41.9406    9.3981 S.2     1  UNL1        0.0492
     17 C          13.3680   38.7120   10.4097 C.3     1  UNL1        0.0956
     18 C          12.3848   36.4925    9.9289 C.3     1  UNL1        0.0322
     19 C          13.2237   37.6189    9.3639 C.3     1  UNL1        0.1182
     20 O          12.6015   38.1299    8.2244 O.3     1  UNL1       -0.3840
     21 H          11.7210   38.4629    8.4586 H       1  UNL1        0.2104
@<TRIPOS>BOND
     1    19    18    1
     2    19    17    1
     3    19    20    1
     4    17    12    1
     5    12    15   ar
     6    13    16   ar
     7    13     2    1
     8     1     5    1
     9     6     7   ar
    10     8     9   ar
    11     8    11    1
    12    10     5   ar
    13    14    16   ar
    14     2     1   am
    15    12    14   ar
    16    13    15   ar
    17     1     3    2
    18     5     6   ar
    19     7     8   ar
    20     9    10   ar
    21     2     4    1
    22    20    21    1
@<TRIPOS>MOLECULE
MolPort-007-595-935 MCULE-7294970288 PubChem-22423740
 21 22 0 0 0
SMALL
GASTEIGER

@<TRIPOS>ATOM
      1 C           9.1098   41.2649    8.3625 C.2     1  UNL1        0.2509
      2 N           9.4800   40.5774    9.5658 N.am    1  UNL1       -0.2595
      3 O           9.8499   41.2158    7.3429 O.2     1  UNL1       -0.2698
      4 H           8.8633   40.6521   10.3296 H       1  UNL1        0.1571
      5 C           7.8541   42.0350    8.3179 C.ar    1  UNL1        0.0538
      6 C           7.6561   43.0145    7.3329 C.ar    1  UNL1        0.0054
      7 C           6.4646   43.7446    7.2914 C.ar    1  UNL1        0.0115
      8 C           5.4626   43.5005    8.2342 C.ar    1  UNL1        0.0577
      9 C           5.6514   42.5269    9.2184 C.ar    1  UNL1        0.0115
     10 C           6.8427   41.7968    9.2601 C.ar    1  UNL1        0.0054
     11 CL          3.9711   44.4144    8.1821 Cl      1  UNL1       -0.0822
     12 C          12.6457   39.1956   10.6283 C.ar    1  UNL1        0.1514
     13 C          10.6621   39.7927    9.7610 C.ar    1  UNL1        0.1845
     14 N          12.5338   38.1441    9.7696 N.ar    1  UNL1       -0.1917
     15 N          11.6280   40.1133   10.6439 N.ar    1  UNL1       -0.2076
     16 S          11.0876   38.3827    8.9870 S.2     1  UNL1        0.0492
     17 C          13.8282   39.3309   11.5269 C.3     1  UNL1        0.0956
     18 C          16.0473   39.4055   10.4340 C.3     1  UNL1        0.0322
     19 C          14.9914   38.4936   11.0218 C.3     1  UNL1        0.1182
     20 O          15.5460   37.7654   12.0749 O.3     1  UNL1       -0.3840
     21 H          15.8674   38.3763   12.7564 H       1  UNL1        0.2104
@<TRIPOS>BOND
     1    19    18    1
     2    19    17    1
     3    19    20    1
     4    17    12    1
     5    12    15   ar
     6    13    16   ar
     7    13     2    1
     8     1     5    1
     9     6     7   ar
    10     8     9   ar
    11     8    11    1
    12    10     5   ar
    13    14    16   ar
    14     2     1   am
    15    12    14   ar
    16    13    15   ar
    17     1     3    2
    18     5     6   ar
    19     7     8   ar
    20     9    10   ar
    21     2     4    1
    22    20    21    1
@<TRIPOS>MOLECULE
MolPort-007-595-935 MCULE-7294970288 PubChem-22423740
 21 22 0 0 0
SMALL
GASTEIGER

@<TRIPOS>ATOM
      1 C           7.3844   41.8844    8.6249 C.2     1  UNL1        0.2509
      2 N           8.2194   40.7264    8.7641 N.am    1  UNL1       -0.2595
      3 O           7.7076   42.8167    7.8399 O.2     1  UNL1       -0.2698
      4 H           7.9164   40.0312    9.3920 H       1  UNL1        0.1571
      5 C           6.1389   41.9852    9.4060 C.ar    1  UNL1        0.0538
      6 C           6.0146   41.3181   10.6342 C.ar    1  UNL1        0.0054
      7 C           4.8327   41.4142   11.3745 C.ar    1  UNL1        0.0115
      8 C           3.7665   42.1780   10.8922 C.ar    1  UNL1        0.0577
      9 C           3.8817   42.8455    9.6702 C.ar    1  UNL1        0.0115
     10 C           5.0635   42.7495    8.9298 C.ar    1  UNL1        0.0054
     11 CL          2.2869   42.2982   11.8190 Cl      1  UNL1       -0.0822
     12 C          11.6708   40.4471    7.7298 C.ar    1  UNL1        0.1514
     13 C           9.4522   40.4859    8.0759 C.ar    1  UNL1        0.1845
     14 N          11.3218   39.8979    6.5331 N.ar    1  UNL1       -0.1917
     15 N          10.6610   40.7759    8.5959 N.ar    1  UNL1       -0.2076
     16 S           9.6619   39.8277    6.5623 S.2     1  UNL1        0.0492
     17 C          13.1023   40.6673    8.0853 C.3     1  UNL1        0.0956
     18 C          13.7865   39.9597   10.3558 C.3     1  UNL1        0.0322
     19 C          13.6381   39.5137    8.9167 C.3     1  UNL1        0.1182
     20 O          12.7556   38.4346    8.8576 O.3     1  UNL1       -0.3840
     21 H          11.8920   38.7036    9.2078 H       1  UNL1        0.2104
@<TRIPOS>BOND
     1    19    18    1
     2    19    17    1
     3    19    20    1
     4    17    12    1
     5    12    15   ar
     6    13    16   ar
     7    13     2    1
     8     1     5    1
     9     6     7   ar
    10     8     9   ar
    11     8    11    1
    12    10     5   ar
    13    14    16   ar
    14     2     1   am
    15    12    14   ar
    16    13    15   ar
    17     1     3    2
    18     5     6   ar
    19     7     8   ar
    20     9    10   ar
    21     2     4    1
    22    20    21    1
@<TRIPOS>MOLECULE
MolPort-007-595-935 MCULE-7294970288 PubChem-22423740
 21 22 0 0 0
SMALL
GASTEIGER

@<TRIPOS>ATOM
      1 C          11.2111   39.9311    9.6144 C.2     1  UNL1        0.2509
      2 N          12.4455   39.8921   10.3440 N.am    1  UNL1       -0.2595
      3 O          10.7793   38.9005    9.0301 O.2     1  UNL1       -0.2698
      4 H          12.7326   40.7272   10.7792 H       1  UNL1        0.1571
      5 C          10.4414   41.1860    9.5473 C.ar    1  UNL1        0.0538
      6 C          10.9706   42.3731   10.0760 C.ar    1  UNL1        0.0054
      7 C          10.2397   43.5630   10.0120 C.ar    1  UNL1        0.0115
      8 C           8.9746   43.5747    9.4187 C.ar    1  UNL1        0.0577
      9 C           8.4400   42.3972    8.8896 C.ar    1  UNL1        0.0115
     10 C           9.1707   41.2072    8.9537 C.ar    1  UNL1        0.0054
     11 CL          8.0597   45.0644    9.3385 Cl      1  UNL1       -0.0822
     12 C          14.2929   36.8081    9.9755 C.ar    1  UNL1        0.1514
     13 C          13.2998   38.7531   10.4990 C.ar    1  UNL1        0.1845
     14 N          14.9025   36.9685   11.1830 N.ar    1  UNL1       -0.1917
     15 N          13.4102   37.7774    9.5764 N.ar    1  UNL1       -0.2076
     16 S          14.2976   38.3956   11.7815 S.2     1  UNL1        0.0492
     17 C          14.5898   35.6257    9.1164 C.3     1  UNL1        0.0956
     18 C          15.8077   35.3828    6.9759 C.3     1  UNL1        0.0322
     19 C          15.9377   35.7779    8.4316 C.3     1  UNL1        0.1182
     20 O          16.3655   37.1035    8.5126 O.3     1  UNL1       -0.3840
     21 H          15.7199   37.6790    8.0734 H       1  UNL1        0.2104
@<TRIPOS>BOND
     1    19    18    1
     2    19    17    1
     3    19    20    1
     4    17    12    1
     5    12    15   ar
     6    13    16   ar
     7    13     2    1
     8     1     5    1
     9     6     7   ar
    10     8     9   ar
    11     8    11    1
    12    10     5   ar
    13    14    16   ar
    14     2     1   am
    15    12    14   ar
    16    13    15   ar
    17     1     3    2
    18     5     6   ar
    19     7     8   ar
    20     9    10   ar
    21     2     4    1
    22    20    21    1
@<TRIPOS>MOLECULE
MolPort-007-595-935 MCULE-7294970288 PubChem-22423740
 21 22 0 0 0
SMALL
GASTEIGER

@<TRIPOS>ATOM
      1 C           8.9792   41.7720    8.2782 C.2     1  UNL1        0.2509
      2 N           8.4146   43.0574    8.5725 N.am    1  UNL1       -0.2595
      3 O           8.2363   40.8020    7.9669 O.2     1  UNL1       -0.2698
      4 H           9.0435   43.7768    8.8097 H       1  UNL1        0.1571
      5 C          10.4395   41.5839    8.3404 C.ar    1  UNL1        0.0538
      6 C          11.0579   41.2174    9.5454 C.ar    1  UNL1        0.0054
      7 C          12.4432   41.0392    9.6035 C.ar    1  UNL1        0.0115
      8 C          13.2202   41.2261    8.4572 C.ar    1  UNL1        0.0577
      9 C          12.6127   41.5910    7.2531 C.ar    1  UNL1        0.0115
     10 C          11.2275   41.7693    7.1949 C.ar    1  UNL1        0.0054
     11 CL         14.9544   41.0030    8.5300 Cl      1  UNL1       -0.0822
     12 C           4.8380   43.2466    9.0537 C.ar    1  UNL1        0.1514
     13 C           7.0224   43.3932    8.5538 C.ar    1  UNL1        0.1845
     14 N           4.7318   44.3250    8.2283 N.ar    1  UNL1       -0.1917
     15 N           6.0871   42.7186    9.2507 N.ar    1  UNL1       -0.2076
     16 S           6.2834   44.6259    7.7157 S.2     1  UNL1        0.0492
     17 C           3.6369   42.6740    9.7274 C.3     1  UNL1        0.0956
     18 C           3.4779   40.3471   10.5547 C.3     1  UNL1        0.0322
     19 C           3.4274   41.2245    9.3221 C.3     1  UNL1        0.1182
     20 O           2.1854   41.0784    8.7032 O.3     1  UNL1       -0.3840
     21 H           1.4840   41.3397    9.3202 H       1  UNL1        0.2104
@<TRIPOS>BOND
     1    19    18    1
     2    19    17    1
     3    19    20    1
     4    17    12    1
     5    12    15   ar
     6    13    16   ar
     7    13     2    1
     8     1     5    1
     9     6     7   ar
    10     8     9   ar
    11     8    11    1
    12    10     5   ar
    13    14    16   ar
    14     2     1   am
    15    12    14   ar
    16    13    15   ar
    17     1     3    2
    18     5     6   ar
    19     7     8   ar
    20     9    10   ar
    21     2     4    1
    22    20    21    1
@<TRIPOS>MOLECULE
MolPort-007-595-935 MCULE-7294970288 PubChem-22423740
 21 22 0 0 0
SMALL
GASTEIGER

@<TRIPOS>ATOM
      1 C          12.3015   41.8617    6.7800 C.2     1  UNL1        0.2509
      2 N          11.4155   42.0080    7.8986 N.am    1  UNL1       -0.2595
      3 O          11.9115   41.2944    5.7236 O.2     1  UNL1       -0.2698
      4 H          11.7754   42.4589    8.6963 H       1  UNL1        0.1571
      5 C          13.6788   42.3788    6.8664 C.ar    1  UNL1        0.0538
      6 C          14.5977   41.8068    7.7592 C.ar    1  UNL1        0.0054
      7 C          15.9040   42.2980    7.8406 C.ar    1  UNL1        0.0115
      8 C          16.3009   43.3646    7.0297 C.ar    1  UNL1        0.0577
      9 C          15.3924   43.9402    6.1378 C.ar    1  UNL1        0.0115
     10 C          14.0862   43.4491    6.0564 C.ar    1  UNL1        0.0054
     11 CL         17.9362   43.9795    7.1316 Cl      1  UNL1       -0.0822
     12 C           7.8581   41.6371    8.4154 C.ar    1  UNL1        0.1514
     13 C          10.0568   41.5600    7.9645 C.ar    1  UNL1        0.1845
     14 N           7.8577   40.3863    7.8758 N.ar    1  UNL1       -0.1917
     15 N           9.0543   42.3034    8.4723 N.ar    1  UNL1       -0.2076
     16 S           9.4397   40.1012    7.4552 S.2     1  UNL1        0.0492
     17 C           6.5971   42.2597    8.9118 C.3     1  UNL1        0.0956
     18 C           6.1260   43.7780    7.0152 C.3     1  UNL1        0.0322
     19 C           6.5037   43.7136    8.4798 C.3     1  UNL1        0.1182
     20 O           5.5335   44.3729    9.2353 O.3     1  UNL1       -0.3840
     21 H           4.6730   43.9460    9.0998 H       1  UNL1        0.2104
@<TRIPOS>BOND
     1    19    18    1
     2    19    17    1
     3    19    20    1
     4    17    12    1
     5    12    15   ar
     6    13    16   ar
     7    13     2    1
     8     1     5    1
     9     6     7   ar
    10     8     9   ar
    11     8    11    1
    12    10     5   ar
    13    14    16   ar
    14     2     1   am
    15    12    14   ar
    16    13    15   ar
    17     1     3    2
    18     5     6   ar
    19     7     8   ar
    20     9    10   ar
    21     2     4    1
    22    20    21    1
