@<TRIPOS>MOLECULE
MolPort-010-852-084 MolPort-019-840-459 41076404 ChemDiv-G952-0634 MCULE-9438056820 PubChem-52095936 ZINC000041076404 ZINC41076404
 25 29 0 0 0
SMALL
GASTEIGER

@<TRIPOS>ATOM
      1 C          11.9753   41.4838    7.1592 C.2     1  UNL1        0.2266
      2 N          12.5359   42.4593    6.2684 N.am    1  UNL1       -0.2628
      3 O          12.6378   41.0652    8.1477 O.2     1  UNL1       -0.2747
      4 H          11.9479   42.7961    5.5543 H       1  UNL1        0.1568
      5 C          10.5553   41.0270    6.9573 C.3     1  UNL1        0.0692
      6 C          10.2371   40.8449    5.4569 C.3     1  UNL1        0.0086
      7 C           8.7908   40.3589    5.2726 C.3     1  UNL1        0.0005
      8 C           8.6097   39.0194    6.0043 C.3     1  UNL1        0.0000
      9 C           8.9063   39.1943    7.5023 C.3     1  UNL1        0.0005
     10 C           7.9452   40.2394    8.0911 C.3     1  UNL1        0.0000
     11 C           8.1237   41.5838    7.3678 C.3     1  UNL1        0.0005
     12 C           7.8291   41.3973    5.8712 C.3     1  UNL1        0.0000
     13 C           9.5733   42.0637    7.5414 C.3     1  UNL1        0.0086
     14 C          10.3531   39.6815    7.6782 C.3     1  UNL1        0.0086
     15 C          17.1836   43.0959    7.4490 C.ar    1  UNL1        0.1643
     16 C          15.9275   44.1480    6.1353 C.ar    1  UNL1        0.2195
     17 C          13.8648   42.9923    6.3135 C.ar    1  UNL1        0.1879
     18 N          17.9127   44.1006    6.8915 N.ar    1  UNL1       -0.1310
     19 N          17.1134   44.7747    6.0543 N.ar    1  UNL1       -0.1202
     20 N          14.8267   42.4476    7.1114 N.ar    1  UNL1       -0.1400
     21 N          15.9442   43.1389    6.9614 N.ar    1  UNL1       -0.1881
     22 S          14.4323   44.3601    5.4131 S.2     1  UNL1       -0.0111
     23 C          17.6940   42.0885    8.4263 C.3     1  UNL1        0.0677
     24 C          17.0873   40.1822    9.9190 C.3     1  UNL1        0.0005
     25 C          16.5512   41.3080    9.0550 C.3     1  UNL1        0.0080
@<TRIPOS>BOND
     1    24    25    1
     2    25    23    1
     3    23    15    1
     4    16    22   ar
     5    17    22   ar
     6    17     2    1
     7     5     1    1
     8     5     6    1
     9     7     6    1
    10     7     8    1
    11     9     8    1
    12     9    10    1
    13     9    14    1
    14    11    10    1
    15    11    12    1
    16    11    13    1
    17    12     7    1
    18    13     5    1
    19    14     5    1
    20    18    19   ar
    21     2     1   am
    22    21    20   ar
    23    21    15   ar
    24    21    16   ar
    25    15    18   ar
    26    16    19   ar
    27    17    20   ar
    28     1     3    2
    29     2     4    1
@<TRIPOS>MOLECULE
MolPort-010-852-084 MolPort-019-840-459 41076404 ChemDiv-G952-0634 MCULE-9438056820 PubChem-52095936 ZINC000041076404 ZINC41076404
 25 29 0 0 0
SMALL
GASTEIGER

@<TRIPOS>ATOM
      1 C           9.7076   41.8063    9.6628 C.2     1  UNL1        0.2266
      2 N           8.6044   41.6254    8.7631 N.am    1  UNL1       -0.2628
      3 O           9.6508   42.6725   10.5781 O.2     1  UNL1       -0.2747
      4 H           8.6801   40.8909    8.1120 H       1  UNL1        0.1568
      5 C          10.9010   40.8942    9.5630 C.3     1  UNL1        0.0692
      6 C          12.0546   41.5694    8.7892 C.3     1  UNL1        0.0086
      7 C          13.2698   40.6314    8.7159 C.3     1  UNL1        0.0005
      8 C          13.7342   40.2922   10.1413 C.3     1  UNL1        0.0000
      9 C          12.5984   39.6027   10.9141 C.3     1  UNL1        0.0005
     10 C          12.1955   38.3134   10.1806 C.3     1  UNL1        0.0000
     11 C          11.7249   38.6447    8.7555 C.3     1  UNL1        0.0005
     12 C          12.8655   39.3369    7.9931 C.3     1  UNL1        0.0000
     13 C          10.5175   39.5928    8.8285 C.3     1  UNL1        0.0086
     14 C          11.3871   40.5459   10.9819 C.3     1  UNL1        0.0086
     15 C           3.9686   42.9378    9.1956 C.ar    1  UNL1        0.1643
     16 C           5.6450   43.9774    8.4750 C.ar    1  UNL1        0.2195
     17 C           7.4040   42.4059    8.7168 C.ar    1  UNL1        0.1879
     18 N           3.5583   44.1799    8.8205 N.ar    1  UNL1       -0.1310
     19 N           4.6253   44.8448    8.3585 N.ar    1  UNL1       -0.1202
     20 N           6.2085   41.9041    9.1382 N.ar    1  UNL1       -0.1400
     21 N           5.2784   42.8301    8.9753 N.ar    1  UNL1       -0.1881
     22 S           7.2825   44.0328    8.1318 S.2     1  UNL1       -0.0111
     23 C           3.1007   41.8756    9.7864 C.3     1  UNL1        0.0677
     24 C           3.9861   40.2650   11.4753 C.3     1  UNL1        0.0005
     25 C           3.4258   41.6574   11.2551 C.3     1  UNL1        0.0080
@<TRIPOS>BOND
     1    24    25    1
     2    25    23    1
     3    23    15    1
     4    16    22   ar
     5    17    22   ar
     6    17     2    1
     7     5     1    1
     8     5     6    1
     9     7     6    1
    10     7     8    1
    11     9     8    1
    12     9    10    1
    13     9    14    1
    14    11    10    1
    15    11    12    1
    16    11    13    1
    17    12     7    1
    18    13     5    1
    19    14     5    1
    20    18    19   ar
    21     2     1   am
    22    21    20   ar
    23    21    15   ar
    24    21    16   ar
    25    15    18   ar
    26    16    19   ar
    27    17    20   ar
    28     1     3    2
    29     2     4    1
@<TRIPOS>MOLECULE
MolPort-010-852-084 MolPort-019-840-459 41076404 ChemDiv-G952-0634 MCULE-9438056820 PubChem-52095936 ZINC000041076404 ZINC41076404
 25 29 0 0 0
SMALL
GASTEIGER

@<TRIPOS>ATOM
      1 C           9.6592   41.8253    9.6419 C.2     1  UNL1        0.2266
      2 N           8.5282   41.6031    8.7870 N.am    1  UNL1       -0.2628
      3 O           9.6419   42.7525   10.4970 O.2     1  UNL1       -0.2747
      4 H           8.5739   40.8248    8.1859 H       1  UNL1        0.1568
      5 C          10.8347   40.8876    9.5725 C.3     1  UNL1        0.0692
      6 C          10.4444   39.5545    8.8973 C.3     1  UNL1        0.0086
      7 C          11.6616   38.6196    8.8173 C.3     1  UNL1        0.0005
      8 C          12.7725   39.3033    8.0043 C.3     1  UNL1        0.0000
      9 C          13.1812   40.6227    8.6786 C.3     1  UNL1        0.0005
     10 C          13.6859   40.3306   10.1007 C.3     1  UNL1        0.0000
     11 C          12.5786   39.6511   10.9220 C.3     1  UNL1        0.0005
     12 C          12.1745   38.3359   10.2378 C.3     1  UNL1        0.0000
     13 C          11.3568   40.5807   10.9915 C.3     1  UNL1        0.0086
     14 C          11.9591   41.5511    8.7561 C.3     1  UNL1        0.0086
     15 C           3.9263   43.0206    9.2478 C.ar    1  UNL1        0.1643
     16 C           5.5998   43.9827    8.4206 C.ar    1  UNL1        0.2195
     17 C           7.3395   42.3997    8.7200 C.ar    1  UNL1        0.1879
     18 N           3.5260   44.2430    8.8035 N.ar    1  UNL1       -0.1310
     19 N           4.5912   44.8583    8.2734 N.ar    1  UNL1       -0.1202
     20 N           6.1475   41.9467    9.2022 N.ar    1  UNL1       -0.1400
     21 N           5.2281   42.8763    9.0027 N.ar    1  UNL1       -0.1881
     22 S           7.2286   43.9875    8.0343 S.2     1  UNL1       -0.0111
     23 C           3.0573   42.0137    9.9272 C.3     1  UNL1        0.0677
     24 C           3.9907   40.3131   11.4978 C.3     1  UNL1        0.0005
     25 C           3.7614   40.6716   10.0417 C.3     1  UNL1        0.0080
@<TRIPOS>BOND
     1    24    25    1
     2    25    23    1
     3    23    15    1
     4    16    22   ar
     5    17    22   ar
     6    17     2    1
     7     5     1    1
     8     5     6    1
     9     7     6    1
    10     7     8    1
    11     9     8    1
    12     9    10    1
    13     9    14    1
    14    11    10    1
    15    11    12    1
    16    11    13    1
    17    12     7    1
    18    13     5    1
    19    14     5    1
    20    18    19   ar
    21     2     1   am
    22    21    20   ar
    23    21    15   ar
    24    21    16   ar
    25    15    18   ar
    26    16    19   ar
    27    17    20   ar
    28     1     3    2
    29     2     4    1
@<TRIPOS>MOLECULE
MolPort-010-852-084 MolPort-019-840-459 41076404 ChemDiv-G952-0634 MCULE-9438056820 PubChem-52095936 ZINC000041076404 ZINC41076404
 25 29 0 0 0
SMALL
GASTEIGER

@<TRIPOS>ATOM
      1 C           9.5874   41.8826    9.5950 C.2     1  UNL1        0.2266
      2 N           8.4483   41.6172    8.7636 N.am    1  UNL1       -0.2628
      3 O           9.5746   42.8469   10.4081 O.2     1  UNL1       -0.2747
      4 H           8.4915   40.8131    8.1972 H       1  UNL1        0.1568
      5 C          10.7671   40.9484    9.5541 C.3     1  UNL1        0.0692
      6 C          11.2989   40.6606   10.9753 C.3     1  UNL1        0.0086
      7 C          12.4888   39.6898   10.9140 C.3     1  UNL1        0.0005
      8 C          12.0370   38.3760   10.2568 C.3     1  UNL1        0.0000
      9 C          11.5229   38.6494    8.8342 C.3     1  UNL1        0.0005
     10 C          12.6481   39.2843    8.0015 C.3     1  UNL1        0.0000
     11 C          13.1023   40.6017    8.6497 C.3     1  UNL1        0.0005
     12 C          13.6102   40.3183   10.0719 C.3     1  UNL1        0.0000
     13 C          11.9094   41.5680    8.7224 C.3     1  UNL1        0.0086
     14 C          10.3347   39.6214    8.9037 C.3     1  UNL1        0.0086
     15 C           3.8997   43.1366    9.3970 C.ar    1  UNL1        0.1643
     16 C           5.4879   43.9352    8.2789 C.ar    1  UNL1        0.2195
     17 C           7.2547   42.4043    8.6746 C.ar    1  UNL1        0.1879
     18 N           3.4556   44.2749    8.7979 N.ar    1  UNL1       -0.1310
     19 N           4.4661   44.7856    8.0823 N.ar    1  UNL1       -0.1202
     20 N           6.1128   42.0473    9.3282 N.ar    1  UNL1       -0.1400
     21 N           5.1750   42.9415    9.0635 N.ar    1  UNL1       -0.1881
     22 S           7.0755   43.8612    7.7532 S.2     1  UNL1       -0.0111
     23 C           3.0997   42.2617   10.3053 C.3     1  UNL1        0.0677
     24 C           4.0173   40.1553   11.2808 C.3     1  UNL1        0.0005
     25 C           3.3968   40.7927   10.0519 C.3     1  UNL1        0.0080
@<TRIPOS>BOND
     1    24    25    1
     2    25    23    1
     3    23    15    1
     4    16    22   ar
     5    17    22   ar
     6    17     2    1
     7     5     1    1
     8     5     6    1
     9     7     6    1
    10     7     8    1
    11     9     8    1
    12     9    10    1
    13     9    14    1
    14    11    10    1
    15    11    12    1
    16    11    13    1
    17    12     7    1
    18    13     5    1
    19    14     5    1
    20    18    19   ar
    21     2     1   am
    22    21    20   ar
    23    21    15   ar
    24    21    16   ar
    25    15    18   ar
    26    16    19   ar
    27    17    20   ar
    28     1     3    2
    29     2     4    1
@<TRIPOS>MOLECULE
MolPort-010-852-084 MolPort-019-840-459 41076404 ChemDiv-G952-0634 MCULE-9438056820 PubChem-52095936 ZINC000041076404 ZINC41076404
 25 29 0 0 0
SMALL
GASTEIGER

@<TRIPOS>ATOM
      1 C          10.2236   42.2998    8.8275 C.2     1  UNL1        0.2266
      2 N          11.1146   41.4288    8.1157 N.am    1  UNL1       -0.2628
      3 O          10.6669   43.0878    9.7072 O.2     1  UNL1       -0.2747
      4 H          10.7205   40.8846    7.3961 H       1  UNL1        0.1568
      5 C           8.7652   42.3307    8.4559 C.3     1  UNL1        0.0692
      6 C           7.9768   41.2329    9.2034 C.3     1  UNL1        0.0086
      7 C           6.4880   41.2940    8.8267 C.3     1  UNL1        0.0005
      8 C           5.9276   42.6757    9.1998 C.3     1  UNL1        0.0000
      9 C           6.6940   43.7746    8.4463 C.3     1  UNL1        0.0005
     10 C           6.5480   43.5485    6.9330 C.3     1  UNL1        0.0000
     11 C           7.1109   42.1703    6.5509 C.3     1  UNL1        0.0005
     12 C           6.3413   41.0796    7.3121 C.3     1  UNL1        0.0000
     13 C           8.5965   42.1048    6.9390 C.3     1  UNL1        0.0086
     14 C           8.1812   43.7063    8.8270 C.3     1  UNL1        0.0086
     15 C          15.8995   42.1099    7.9145 C.ar    1  UNL1        0.1643
     16 C          14.7398   40.6981    8.9500 C.ar    1  UNL1        0.2195
     17 C          12.5195   41.2711    8.3466 C.ar    1  UNL1        0.1879
     18 N          16.7473   41.3089    8.6155 N.ar    1  UNL1       -0.1310
     19 N          16.0104   40.4060    9.2757 N.ar    1  UNL1       -0.1202
     20 N          13.4368   42.0907    7.7589 N.ar    1  UNL1       -0.1400
     21 N          14.6467   41.7149    8.1386 N.ar    1  UNL1       -0.1881
     22 S          13.2452   40.0606    9.3525 S.2     1  UNL1       -0.0111
     23 C          16.3020   43.2638    7.0561 C.3     1  UNL1        0.0677
     24 C          17.5101   44.0598    9.0900 C.3     1  UNL1        0.0005
     25 C          17.5684   43.9206    7.5806 C.3     1  UNL1        0.0080
@<TRIPOS>BOND
     1    24    25    1
     2    25    23    1
     3    23    15    1
     4    16    22   ar
     5    17    22   ar
     6    17     2    1
     7     5     1    1
     8     5     6    1
     9     7     6    1
    10     7     8    1
    11     9     8    1
    12     9    10    1
    13     9    14    1
    14    11    10    1
    15    11    12    1
    16    11    13    1
    17    12     7    1
    18    13     5    1
    19    14     5    1
    20    18    19   ar
    21     2     1   am
    22    21    20   ar
    23    21    15   ar
    24    21    16   ar
    25    15    18   ar
    26    16    19   ar
    27    17    20   ar
    28     1     3    2
    29     2     4    1
@<TRIPOS>MOLECULE
MolPort-010-852-084 MolPort-019-840-459 41076404 ChemDiv-G952-0634 MCULE-9438056820 PubChem-52095936 ZINC000041076404 ZINC41076404
 25 29 0 0 0
SMALL
GASTEIGER

@<TRIPOS>ATOM
      1 C           7.4676   41.9549    9.3591 C.2     1  UNL1        0.2266
      2 N           8.4199   40.9973    9.8444 N.am    1  UNL1       -0.2628
      3 O           7.8212   42.8533    8.5474 O.2     1  UNL1       -0.2747
      4 H           8.0717   40.2811   10.4233 H       1  UNL1        0.1568
      5 C           6.0214   41.8272    9.7571 C.3     1  UNL1        0.0692
      6 C           5.3059   43.1949    9.7016 C.3     1  UNL1        0.0086
      7 C           3.8272   43.0404   10.0909 C.3     1  UNL1        0.0005
      8 C           3.1472   42.0631    9.1189 C.3     1  UNL1        0.0000
      9 C           3.8408   40.6928    9.1804 C.3     1  UNL1        0.0005
     10 C           3.7522   40.1431   10.6131 C.3     1  UNL1        0.0000
     11 C           4.4347   41.1128   11.5910 C.3     1  UNL1        0.0005
     12 C           3.7370   42.4800   11.5190 C.3     1  UNL1        0.0000
     13 C           5.9103   41.2770   11.1942 C.3     1  UNL1        0.0086
     14 C           5.3185   40.8556    8.7913 C.3     1  UNL1        0.0086
     15 C          13.1679   40.1895   10.2951 C.ar    1  UNL1        0.1643
     16 C          12.0595   41.1553    8.7954 C.ar    1  UNL1        0.2195
     17 C           9.8260   40.9783    9.5715 C.ar    1  UNL1        0.1879
     18 N          14.0403   40.6129    9.3404 N.ar    1  UNL1       -0.1310
     19 N          13.3362   41.2311    8.3833 N.ar    1  UNL1       -0.1202
     20 N          10.7129   40.3993   10.4298 N.ar    1  UNL1       -0.1400
     21 N          11.9322   40.5348    9.9356 N.ar    1  UNL1       -0.1881
     22 S          10.5907   41.6686    8.1778 S.2     1  UNL1       -0.0111
     23 C          13.5296   39.4340   11.5316 C.3     1  UNL1        0.0677
     24 C          13.0649   37.0786   10.8488 C.3     1  UNL1        0.0005
     25 C          14.1455   38.0872   11.1897 C.3     1  UNL1        0.0080
@<TRIPOS>BOND
     1    24    25    1
     2    25    23    1
     3    23    15    1
     4    16    22   ar
     5    17    22   ar
     6    17     2    1
     7     5     1    1
     8     5     6    1
     9     7     6    1
    10     7     8    1
    11     9     8    1
    12     9    10    1
    13     9    14    1
    14    11    10    1
    15    11    12    1
    16    11    13    1
    17    12     7    1
    18    13     5    1
    19    14     5    1
    20    18    19   ar
    21     2     1   am
    22    21    20   ar
    23    21    15   ar
    24    21    16   ar
    25    15    18   ar
    26    16    19   ar
    27    17    20   ar
    28     1     3    2
    29     2     4    1
@<TRIPOS>MOLECULE
MolPort-010-852-084 MolPort-019-840-459 41076404 ChemDiv-G952-0634 MCULE-9438056820 PubChem-52095936 ZINC000041076404 ZINC41076404
 25 29 0 0 0
SMALL
GASTEIGER

@<TRIPOS>ATOM
      1 C          10.1662   42.3979    8.5222 C.2     1  UNL1        0.2266
      2 N          11.1291   42.0026    7.5343 N.am    1  UNL1       -0.2628
      3 O          10.5434   42.8326    9.6446 O.2     1  UNL1       -0.2747
      4 H          10.7766   41.7343    6.6551 H       1  UNL1        0.1568
      5 C           8.7009   42.3735    8.1784 C.3     1  UNL1        0.0692
      6 C           8.0323   43.7296    8.4941 C.3     1  UNL1        0.0086
      7 C           6.5428   43.6914    8.1175 C.3     1  UNL1        0.0005
      8 C           6.4076   43.3869    6.6171 C.3     1  UNL1        0.0000
      9 C           7.0539   42.0298    6.2958 C.3     1  UNL1        0.0005
     10 C           6.3564   40.9298    7.1119 C.3     1  UNL1        0.0000
     11 C           6.4915   41.2245    8.6143 C.3     1  UNL1        0.0005
     12 C           5.8463   42.5843    8.9241 C.3     1  UNL1        0.0000
     13 C           7.9812   41.2751    8.9884 C.3     1  UNL1        0.0086
     14 C           8.5421   42.0754    6.6762 C.3     1  UNL1        0.0086
     15 C          15.5327   40.6895    9.0455 C.ar    1  UNL1        0.1643
     16 C          14.9100   42.2014    7.7275 C.ar    1  UNL1        0.2195
     17 C          12.5515   41.9592    7.6983 C.ar    1  UNL1        0.1879
     18 N          16.6436   41.3390    8.6028 N.ar    1  UNL1       -0.1310
     19 N          16.2493   42.3054    7.7632 N.ar    1  UNL1       -0.1202
     20 N          13.1490   41.0479    8.5176 N.ar    1  UNL1       -0.1400
     21 N          14.4570   41.2408    8.4845 N.ar    1  UNL1       -0.1881
     22 S          13.6869   43.0181    6.9279 S.2     1  UNL1       -0.0111
     23 C          15.5193   39.5280    9.9842 C.3     1  UNL1        0.0677
     24 C          14.3518   38.4386   11.9026 C.3     1  UNL1        0.0005
     25 C          14.3288   39.5996   10.9265 C.3     1  UNL1        0.0080
@<TRIPOS>BOND
     1    24    25    1
     2    25    23    1
     3    23    15    1
     4    16    22   ar
     5    17    22   ar
     6    17     2    1
     7     5     1    1
     8     5     6    1
     9     7     6    1
    10     7     8    1
    11     9     8    1
    12     9    10    1
    13     9    14    1
    14    11    10    1
    15    11    12    1
    16    11    13    1
    17    12     7    1
    18    13     5    1
    19    14     5    1
    20    18    19   ar
    21     2     1   am
    22    21    20   ar
    23    21    15   ar
    24    21    16   ar
    25    15    18   ar
    26    16    19   ar
    27    17    20   ar
    28     1     3    2
    29     2     4    1
@<TRIPOS>MOLECULE
MolPort-010-852-084 MolPort-019-840-459 41076404 ChemDiv-G952-0634 MCULE-9438056820 PubChem-52095936 ZINC000041076404 ZINC41076404
 25 29 0 0 0
SMALL
GASTEIGER

@<TRIPOS>ATOM
      1 C           7.1458   42.0454    8.8327 C.2     1  UNL1        0.2266
      2 N           8.2062   41.0934    9.0015 N.am    1  UNL1       -0.2628
      3 O           7.2974   43.0439    8.0769 O.2     1  UNL1       -0.2747
      4 H           8.0066   40.3013    9.5510 H       1  UNL1        0.1568
      5 C           5.8171   41.7982    9.4956 C.3     1  UNL1        0.0692
      6 C           6.0023   41.2134   10.9130 C.3     1  UNL1        0.0086
      7 C           4.6365   40.9876   11.5805 C.3     1  UNL1        0.0005
      8 C           3.8887   42.3274   11.6694 C.3     1  UNL1        0.0000
      9 C           3.6830   42.9090   10.2615 C.3     1  UNL1        0.0005
     10 C           2.8679   41.9166    9.4168 C.3     1  UNL1        0.0000
     11 C           3.6116   40.5751    9.3190 C.3     1  UNL1        0.0005
     12 C           3.8158   40.0045   10.7310 C.3     1  UNL1        0.0000
     13 C           4.9826   40.8030    8.6629 C.3     1  UNL1        0.0086
     14 C           5.0524   43.1306    9.6004 C.3     1  UNL1        0.0086
     15 C          13.0263   40.9846    8.6076 C.ar    1  UNL1        0.1643
     16 C          11.5281   41.4363    7.2070 C.ar    1  UNL1        0.2195
     17 C           9.5260   41.1794    8.4511 C.ar    1  UNL1        0.1879
     18 N          13.6355   41.2756    7.4261 N.ar    1  UNL1       -0.1310
     19 N          12.6822   41.5660    6.5311 N.ar    1  UNL1       -0.1202
     20 N          10.6329   40.9256    9.2055 N.ar    1  UNL1       -0.1400
     21 N          11.7070   41.0871    8.4508 N.ar    1  UNL1       -0.1881
     22 S           9.9096   41.6132    6.8176 S.2     1  UNL1       -0.0111
     23 C          13.7189   40.5857    9.8692 C.3     1  UNL1        0.0677
     24 C          13.7379   38.9017   11.7115 C.3     1  UNL1        0.0005
     25 C          12.8886   39.5851   10.6565 C.3     1  UNL1        0.0080
@<TRIPOS>BOND
     1    24    25    1
     2    25    23    1
     3    23    15    1
     4    16    22   ar
     5    17    22   ar
     6    17     2    1
     7     5     1    1
     8     5     6    1
     9     7     6    1
    10     7     8    1
    11     9     8    1
    12     9    10    1
    13     9    14    1
    14    11    10    1
    15    11    12    1
    16    11    13    1
    17    12     7    1
    18    13     5    1
    19    14     5    1
    20    18    19   ar
    21     2     1   am
    22    21    20   ar
    23    21    15   ar
    24    21    16   ar
    25    15    18   ar
    26    16    19   ar
    27    17    20   ar
    28     1     3    2
    29     2     4    1
@<TRIPOS>MOLECULE
MolPort-010-852-084 MolPort-019-840-459 41076404 ChemDiv-G952-0634 MCULE-9438056820 PubChem-52095936 ZINC000041076404 ZINC41076404
 25 29 0 0 0
SMALL
GASTEIGER

@<TRIPOS>ATOM
      1 C          10.0537   39.5879    7.9537 C.2     1  UNL1        0.2266
      2 N          10.1615   38.8059    9.1522 N.am    1  UNL1       -0.2628
      3 O          10.8494   39.3990    6.9934 O.2     1  UNL1       -0.2747
      4 H           9.4726   38.9529    9.8399 H       1  UNL1        0.1568
      5 C           8.9276   40.5771    7.8144 C.3     1  UNL1        0.0692
      6 C           8.4987   41.1300    9.1913 C.3     1  UNL1        0.0086
      7 C           7.3632   42.1524    9.0264 C.3     1  UNL1        0.0005
      8 C           7.8474   43.3073    8.1352 C.3     1  UNL1        0.0000
      9 C           8.2593   42.7695    6.7555 C.3     1  UNL1        0.0005
     10 C           7.0526   42.0801    6.0987 C.3     1  UNL1        0.0000
     11 C           6.5654   40.9203    6.9818 C.3     1  UNL1        0.0005
     12 C           6.1601   41.4676    8.3593 C.3     1  UNL1        0.0000
     13 C           7.7048   39.9040    7.1571 C.3     1  UNL1        0.0086
     14 C           9.3936   41.7473    6.9288 C.3     1  UNL1        0.0086
     15 C          14.4249   36.5269    9.3227 C.ar    1  UNL1        0.1643
     16 C          12.5472   36.0219   10.1163 C.ar    1  UNL1        0.2195
     17 C          11.1703   37.8330    9.4486 C.ar    1  UNL1        0.1879
     18 N          14.5552   35.3410    9.9772 N.ar    1  UNL1       -0.1310
     19 N          13.3584   35.0153   10.4829 N.ar    1  UNL1       -0.1202
     20 N          12.4547   37.9807    9.0161 N.ar    1  UNL1       -0.1400
     21 N          13.1619   36.9398    9.4230 N.ar    1  UNL1       -0.1881
     22 S          10.9274   36.3733   10.3508 S.2     1  UNL1       -0.0111
     23 C          15.5231   37.2638    8.6289 C.3     1  UNL1        0.0677
     24 C          15.9137   35.4839    6.9231 C.3     1  UNL1        0.0005
     25 C          16.5398   36.3010    8.0375 C.3     1  UNL1        0.0080
@<TRIPOS>BOND
     1    24    25    1
     2    25    23    1
     3    23    15    1
     4    16    22   ar
     5    17    22   ar
     6    17     2    1
     7     5     1    1
     8     5     6    1
     9     7     6    1
    10     7     8    1
    11     9     8    1
    12     9    10    1
    13     9    14    1
    14    11    10    1
    15    11    12    1
    16    11    13    1
    17    12     7    1
    18    13     5    1
    19    14     5    1
    20    18    19   ar
    21     2     1   am
    22    21    20   ar
    23    21    15   ar
    24    21    16   ar
    25    15    18   ar
    26    16    19   ar
    27    17    20   ar
    28     1     3    2
    29     2     4    1
@<TRIPOS>MOLECULE
MolPort-010-852-084 MolPort-019-840-459 41076404 ChemDiv-G952-0634 MCULE-9438056820 PubChem-52095936 ZINC000041076404 ZINC41076404
 25 29 0 0 0
SMALL
GASTEIGER

@<TRIPOS>ATOM
      1 C           9.7546   41.3931    9.3901 C.2     1  UNL1        0.2266
      2 N           8.5560   40.8565    9.9688 N.am    1  UNL1       -0.2628
      3 O           9.7632   42.5558    8.9009 O.2     1  UNL1       -0.2747
      4 H           8.6275   39.9710   10.3933 H       1  UNL1        0.1568
      5 C          11.0277   40.5922    9.4494 C.3     1  UNL1        0.0692
      6 C          12.1230   41.2211    8.5605 C.3     1  UNL1        0.0086
      7 C          13.4200   40.4015    8.6504 C.3     1  UNL1        0.0005
      8 C          13.8976   40.3681   10.1110 C.3     1  UNL1        0.0000
      9 C          12.8213   39.7266   11.0014 C.3     1  UNL1        0.0005
     10 C          12.5468   38.2949   10.5139 C.3     1  UNL1        0.0000
     11 C          12.0639   38.3201    9.0550 C.3     1  UNL1        0.0005
     12 C          13.1445   38.9666    8.1744 C.3     1  UNL1        0.0000
     13 C          10.7737   39.1502    8.9630 C.3     1  UNL1        0.0086
     14 C          11.5278   40.5506   10.9051 C.3     1  UNL1        0.0086
     15 C           4.7645   43.5956    8.7354 C.ar    1  UNL1        0.1643
     16 C           5.0815   42.3185   10.3721 C.ar    1  UNL1        0.2195
     17 C           7.2661   41.4792    9.9912 C.ar    1  UNL1        0.1879
     18 N           3.6436   43.6217    9.5067 N.ar    1  UNL1       -0.1310
     19 N           3.8437   42.8093   10.5527 N.ar    1  UNL1       -0.1202
     20 N           6.8740   42.3463    9.0149 N.ar    1  UNL1       -0.1400
     21 N           5.6526   42.7720    9.2909 N.ar    1  UNL1       -0.1881
     22 S           6.0588   41.2511   11.2135 S.2     1  UNL1       -0.0111
     23 C           4.9599   44.3439    7.4578 C.3     1  UNL1        0.0677
     24 C           6.7403   43.4258    5.9688 C.3     1  UNL1        0.0005
     25 C           6.4310   44.4095    7.0814 C.3     1  UNL1        0.0080
@<TRIPOS>BOND
     1    24    25    1
     2    25    23    1
     3    23    15    1
     4    16    22   ar
     5    17    22   ar
     6    17     2    1
     7     5     1    1
     8     5     6    1
     9     7     6    1
    10     7     8    1
    11     9     8    1
    12     9    10    1
    13     9    14    1
    14    11    10    1
    15    11    12    1
    16    11    13    1
    17    12     7    1
    18    13     5    1
    19    14     5    1
    20    18    19   ar
    21     2     1   am
    22    21    20   ar
    23    21    15   ar
    24    21    16   ar
    25    15    18   ar
    26    16    19   ar
    27    17    20   ar
    28     1     3    2
    29     2     4    1
