@<TRIPOS>MOLECULE
MolPort-039-210-477 CSSS03437094304 PubChem-121017029
 25 27 0 0 0
SMALL
GASTEIGER

@<TRIPOS>ATOM
      1 N          10.0356   40.5584    9.9580 N.pl3   1  UNL1       -0.2119
      2 H          10.0284   39.5918   10.1449 H       1  UNL1        0.1738
      3 N          11.6099   41.4845    6.9123 N.ar    1  UNL1       -0.2456
      4 N          10.3618   41.8165    6.6197 N.ar    1  UNL1       -0.1662
      5 C          10.4183   41.0030    8.6566 C.ar    1  UNL1        0.1043
      6 C          11.6995   40.9822    8.1563 C.ar    1  UNL1        0.1125
      7 C           9.5880   41.5286    7.6846 C.ar    1  UNL1        0.1375
      8 C          12.7305   41.6740    6.0053 C.3     1  UNL1        0.1569
      9 O          14.1275   43.5082    5.3625 O.3     1  UNL1       -0.3542
     10 C          13.6084   42.8228    6.4759 C.3     1  UNL1        0.1395
     11 C          14.7368   42.3009    7.3836 C.3     1  UNL1        0.0317
     12 C          16.0812   42.9499    7.0444 C.3     1  UNL1        0.0051
     13 C          15.9234   44.4377    6.7202 C.3     1  UNL1        0.0322
     14 C          14.6756   44.7040    5.8625 C.3     1  UNL1        0.1421
     15 O          10.1547   41.1762   12.5257 O.2     1  UNL1       -0.1499
     16 O          10.0975   43.0331   10.9172 O.2     1  UNL1       -0.1499
     17 S           9.5837   41.6537   11.2205 S.O2    1  UNL1        0.0750
     18 C           7.8394   41.6980   11.3520 C.2     1  UNL1        0.1439
     19 C           7.0882   41.8004   10.2611 C.2     1  UNL1        0.0216
     20 C           5.6205   41.8418   10.3085 C.ar    1  UNL1        0.0014
     21 C           4.9597   41.1511   11.3303 C.ar    1  UNL1        0.0000
     22 C           3.5636   41.1692   11.4059 C.ar    1  UNL1        0.0000
     23 C           2.8209   41.8793   10.4583 C.ar    1  UNL1        0.0000
     24 C           3.4739   42.5718    9.4346 C.ar    1  UNL1        0.0000
     25 C           4.8696   42.5539    9.3588 C.ar    1  UNL1        0.0000
@<TRIPOS>BOND
     1    17     1    1
     2    17    18    1
     3     1     5    1
     4     3     4   ar
     5     6     3   ar
     6     8     3    1
     7    10     8    1
     8    10    11    1
     9    10     9    1
    10    11    12    1
    11    12    13    1
    12    13    14    1
    13    14     9    1
    14     7     5   ar
    15    19    20    1
    16    21    22   ar
    17    23    24   ar
    18    25    20   ar
    19    17    15    2
    20    17    16    2
    21     5     6   ar
    22     7     4   ar
    23    18    19    2
    24    20    21   ar
    25    22    23   ar
    26    24    25   ar
    27     1     2    1
@<TRIPOS>MOLECULE
MolPort-039-210-477 CSSS03437094304 PubChem-121017029
 25 27 0 0 0
SMALL
GASTEIGER

@<TRIPOS>ATOM
      1 N          10.3018   40.5830    6.3969 N.pl3   1  UNL1       -0.2119
      2 H          10.0525   40.5544    5.4449 H       1  UNL1        0.1738
      3 N          12.9651   42.8934    6.8234 N.ar    1  UNL1       -0.2456
      4 N          12.4478   42.9330    8.0418 N.ar    1  UNL1       -0.1662
      5 C          11.2786   41.5331    6.8224 C.ar    1  UNL1        0.1043
      6 C          12.2842   42.0437    6.0346 C.ar    1  UNL1        0.1125
      7 C          11.3914   42.0975    8.0790 C.ar    1  UNL1        0.1375
      8 C          14.1363   43.6536    6.4174 C.3     1  UNL1        0.1569
      9 O          15.3827   42.6914    8.2200 O.3     1  UNL1       -0.3542
     10 C          15.4092   42.9342    6.8346 C.3     1  UNL1        0.1395
     11 C          16.6475   43.7579    6.4377 C.3     1  UNL1        0.0317
     12 C          17.6869   43.7935    7.5612 C.3     1  UNL1        0.0051
     13 C          17.8049   42.4383    8.2634 C.3     1  UNL1        0.0322
     14 C          16.4291   41.7860    8.4763 C.3     1  UNL1        0.1421
     15 O           8.2634   40.0854    8.0051 O.2     1  UNL1       -0.1499
     16 O           9.2376   38.1832    6.7923 O.2     1  UNL1       -0.1499
     17 S           9.5385   39.4792    7.4910 S.O2    1  UNL1        0.0750
     18 C          10.6040   39.1768    8.8457 C.2     1  UNL1        0.1439
     19 C          11.7789   38.5868    8.6546 C.2     1  UNL1        0.0216
     20 C          12.7150   38.3074    9.7517 C.ar    1  UNL1        0.0014
     21 C          12.9096   36.9802   10.1497 C.ar    1  UNL1        0.0000
     22 C          13.7934   36.6780   11.1902 C.ar    1  UNL1        0.0000
     23 C          14.4878   37.7036   11.8383 C.ar    1  UNL1        0.0000
     24 C          14.2987   39.0319   11.4464 C.ar    1  UNL1        0.0000
     25 C          13.4151   39.3343   10.4061 C.ar    1  UNL1        0.0000
@<TRIPOS>BOND
     1    17     1    1
     2    17    18    1
     3     1     5    1
     4     3     4   ar
     5     6     3   ar
     6     8     3    1
     7    10     8    1
     8    10    11    1
     9    10     9    1
    10    11    12    1
    11    12    13    1
    12    13    14    1
    13    14     9    1
    14     7     5   ar
    15    19    20    1
    16    21    22   ar
    17    23    24   ar
    18    25    20   ar
    19    17    15    2
    20    17    16    2
    21     5     6   ar
    22     7     4   ar
    23    18    19    2
    24    20    21   ar
    25    22    23   ar
    26    24    25   ar
    27     1     2    1
@<TRIPOS>MOLECULE
MolPort-039-210-477 CSSS03437094304 PubChem-121017029
 25 27 0 0 0
SMALL
GASTEIGER

@<TRIPOS>ATOM
      1 N          10.9010   39.1794    5.6371 N.pl3   1  UNL1       -0.2119
      2 H          11.3792   38.6101    4.9917 H       1  UNL1        0.1738
      3 N          12.7814   41.7945    7.1333 N.ar    1  UNL1       -0.2456
      4 N          12.7360   40.9507    8.1529 N.ar    1  UNL1       -0.1662
      5 C          11.6563   40.0703    6.4578 C.ar    1  UNL1        0.1043
      6 C          12.1346   41.2985    6.0639 C.ar    1  UNL1        0.1125
      7 C          12.0399   39.8626    7.7694 C.ar    1  UNL1        0.1375
      8 C          13.4716   43.0737    7.1728 C.3     1  UNL1        0.1569
      9 O          15.7062   43.0497    8.0300 O.3     1  UNL1       -0.3542
     10 C          14.9476   42.8926    6.8559 C.3     1  UNL1        0.1395
     11 C          15.3910   43.8890    5.7695 C.3     1  UNL1        0.0317
     12 C          16.7389   44.5312    6.1074 C.3     1  UNL1        0.0051
     13 C          17.7075   43.5184    6.7233 C.3     1  UNL1        0.0322
     14 C          16.9996   42.5886    7.7223 C.3     1  UNL1        0.1421
     15 O           8.6056   38.9316    4.3493 O.2     1  UNL1       -0.1499
     16 O           8.7844   37.8673    6.5570 O.2     1  UNL1       -0.1499
     17 S           9.1763   39.0615    5.7332 S.O2    1  UNL1        0.0750
     18 C           8.5369   40.5134    6.4716 C.2     1  UNL1        0.1439
     19 C           7.2260   40.6649    6.6250 C.2     1  UNL1        0.0216
     20 C           6.6310   41.8602    7.2376 C.ar    1  UNL1        0.0014
     21 C           5.9842   41.7336    8.4719 C.ar    1  UNL1        0.0000
     22 C           5.4070   42.8506    9.0838 C.ar    1  UNL1        0.0000
     23 C           5.4742   44.1011    8.4630 C.ar    1  UNL1        0.0000
     24 C           6.1187   44.2355    7.2299 C.ar    1  UNL1        0.0000
     25 C           6.6959   43.1190    6.6179 C.ar    1  UNL1        0.0000
@<TRIPOS>BOND
     1    17     1    1
     2    17    18    1
     3     1     5    1
     4     3     4   ar
     5     6     3   ar
     6     8     3    1
     7    10     8    1
     8    10    11    1
     9    10     9    1
    10    11    12    1
    11    12    13    1
    12    13    14    1
    13    14     9    1
    14     7     5   ar
    15    19    20    1
    16    21    22   ar
    17    23    24   ar
    18    25    20   ar
    19    17    15    2
    20    17    16    2
    21     5     6   ar
    22     7     4   ar
    23    18    19    2
    24    20    21   ar
    25    22    23   ar
    26    24    25   ar
    27     1     2    1
@<TRIPOS>MOLECULE
MolPort-039-210-477 CSSS03437094304 PubChem-121017029
 25 27 0 0 0
SMALL
GASTEIGER

@<TRIPOS>ATOM
      1 N          10.7750   39.3096    6.8808 N.pl3   1  UNL1       -0.2119
      2 H          10.6156   38.6479    6.1695 H       1  UNL1        0.1738
      3 N          12.4441   38.6232    9.9397 N.ar    1  UNL1       -0.2456
      4 N          11.4388   37.7678   10.0456 N.ar    1  UNL1       -0.1662
      5 C          11.2460   38.8539    8.1491 C.ar    1  UNL1        0.1043
      6 C          12.3740   39.3140    8.7883 C.ar    1  UNL1        0.1125
      7 C          10.6681   37.8842    8.9466 C.ar    1  UNL1        0.1375
      8 C          13.4953   38.7625   10.9346 C.3     1  UNL1        0.1569
      9 O          15.5811   37.6102   11.1598 O.3     1  UNL1       -0.3542
     10 C          14.8543   38.4715   10.3179 C.3     1  UNL1        0.1395
     11 C          15.6223   39.7814   10.0654 C.3     1  UNL1        0.0317
     12 C          17.0893   39.6673   10.4881 C.3     1  UNL1        0.0051
     13 C          17.6757   38.3004   10.1261 C.3     1  UNL1        0.0322
     14 C          16.6799   37.1624   10.4034 C.3     1  UNL1        0.1421
     15 O           9.5193   41.0960    5.3906 O.2     1  UNL1       -0.1499
     16 O           9.8880   41.6541    7.7552 O.2     1  UNL1       -0.1499
     17 S          10.4735   40.9813    6.5456 S.O2    1  UNL1        0.0750
     18 C          11.9769   41.7656    6.1137 C.2     1  UNL1        0.1439
     19 C          12.8664   42.0709    7.0520 C.2     1  UNL1        0.0216
     20 C          14.1449   42.7287    6.7504 C.ar    1  UNL1        0.0014
     21 C          14.2156   43.5922    5.6517 C.ar    1  UNL1        0.0000
     22 C          15.4163   44.2352    5.3358 C.ar    1  UNL1        0.0000
     23 C          16.5536   44.0173    6.1187 C.ar    1  UNL1        0.0000
     24 C          16.4908   43.1562    7.2179 C.ar    1  UNL1        0.0000
     25 C          15.2905   42.5131    7.5340 C.ar    1  UNL1        0.0000
@<TRIPOS>BOND
     1    17     1    1
     2    17    18    1
     3     1     5    1
     4     3     4   ar
     5     6     3   ar
     6     8     3    1
     7    10     8    1
     8    10    11    1
     9    10     9    1
    10    11    12    1
    11    12    13    1
    12    13    14    1
    13    14     9    1
    14     7     5   ar
    15    19    20    1
    16    21    22   ar
    17    23    24   ar
    18    25    20   ar
    19    17    15    2
    20    17    16    2
    21     5     6   ar
    22     7     4   ar
    23    18    19    2
    24    20    21   ar
    25    22    23   ar
    26    24    25   ar
    27     1     2    1
@<TRIPOS>MOLECULE
MolPort-039-210-477 CSSS03437094304 PubChem-121017029
 25 27 0 0 0
SMALL
GASTEIGER

@<TRIPOS>ATOM
      1 N          10.0497   43.1493    9.4761 N.pl3   1  UNL1       -0.2119
      2 H          10.6195   43.6940   10.0659 H       1  UNL1        0.1738
      3 N           6.6442   43.6171    8.5833 N.ar    1  UNL1       -0.2456
      4 N           6.9136   44.8274    9.0485 N.ar    1  UNL1       -0.1662
      5 C           8.7182   43.5899    9.2099 C.ar    1  UNL1        0.1043
      6 C           7.7229   42.8178    8.6569 C.ar    1  UNL1        0.1125
      7 C           8.1993   44.8482    9.4508 C.ar    1  UNL1        0.1375
      8 C           5.3529   43.2293    8.0390 C.3     1  UNL1        0.1569
      9 O           4.0397   43.1409   10.0382 O.3     1  UNL1       -0.3542
     10 C           4.6033   42.3459    9.0237 C.3     1  UNL1        0.1395
     11 C           5.5428   41.2775    9.6114 C.3     1  UNL1        0.0317
     12 C           5.3511   41.1254   11.1226 C.3     1  UNL1        0.0051
     13 C           3.8739   41.2111   11.5150 C.3     1  UNL1        0.0322
     14 C           3.1390   42.3092   10.7291 C.3     1  UNL1        0.1421
     15 O           9.7295   40.5668    9.0106 O.2     1  UNL1       -0.1499
     16 O          10.9581   41.8747    7.3318 O.2     1  UNL1       -0.1499
     17 S          10.7009   41.6938    8.8014 S.O2    1  UNL1        0.0750
     18 C          12.2016   41.3010    9.6111 C.2     1  UNL1        0.1439
     19 C          12.7240   40.0847    9.4995 C.2     1  UNL1        0.0216
     20 C          13.9801   39.6966   10.1551 C.ar    1  UNL1        0.0014
     21 C          15.1911   39.9922    9.5195 C.ar    1  UNL1        0.0000
     22 C          16.4054   39.6376   10.1151 C.ar    1  UNL1        0.0000
     23 C          16.4140   38.9847   11.3510 C.ar    1  UNL1        0.0000
     24 C          15.2084   38.6861   11.9921 C.ar    1  UNL1        0.0000
     25 C          13.9942   39.0405   11.3969 C.ar    1  UNL1        0.0000
@<TRIPOS>BOND
     1    17     1    1
     2    17    18    1
     3     1     5    1
     4     3     4   ar
     5     6     3   ar
     6     8     3    1
     7    10     8    1
     8    10    11    1
     9    10     9    1
    10    11    12    1
    11    12    13    1
    12    13    14    1
    13    14     9    1
    14     7     5   ar
    15    19    20    1
    16    21    22   ar
    17    23    24   ar
    18    25    20   ar
    19    17    15    2
    20    17    16    2
    21     5     6   ar
    22     7     4   ar
    23    18    19    2
    24    20    21   ar
    25    22    23   ar
    26    24    25   ar
    27     1     2    1
@<TRIPOS>MOLECULE
MolPort-039-210-477 CSSS03437094304 PubChem-121017029
 25 27 0 0 0
SMALL
GASTEIGER

@<TRIPOS>ATOM
      1 N          13.1488   38.5558    9.0569 N.pl3   1  UNL1       -0.2119
      2 H          13.1571   37.6684    8.6307 H       1  UNL1        0.1738
      3 N          10.9433   40.8499    7.4802 N.ar    1  UNL1       -0.2456
      4 N          10.4425   40.8767    8.7058 N.ar    1  UNL1       -0.1662
      5 C          12.1462   39.4947    8.6681 C.ar    1  UNL1        0.1043
      6 C          11.9962   40.0171    7.4043 C.ar    1  UNL1        0.1125
      7 C          11.1668   40.0412    9.4758 C.ar    1  UNL1        0.1375
      8 C          10.4280   41.6473    6.3788 C.3     1  UNL1        0.1569
      9 O           8.0963   41.6519    6.9192 O.3     1  UNL1       -0.3542
     10 C           9.0363   41.1773    5.9864 C.3     1  UNL1        0.1395
     11 C           8.9949   39.6418    5.8868 C.3     1  UNL1        0.0317
     12 C           7.7358   39.0665    6.5405 C.3     1  UNL1        0.0051
     13 C           6.5058   39.9315    6.2534 C.3     1  UNL1        0.0322
     14 C           6.8313   41.4313    6.3435 C.3     1  UNL1        0.1421
     15 O          13.6823   39.4200   11.4977 O.2     1  UNL1       -0.1499
     16 O          15.1542   37.6876   10.5645 O.2     1  UNL1       -0.1499
     17 S          14.3509   38.9180   10.2492 S.O2    1  UNL1        0.0750
     18 C          15.4139   40.1669    9.6391 C.2     1  UNL1        0.1439
     19 C          15.0006   40.9883    8.6803 C.2     1  UNL1        0.0216
     20 C          15.8470   42.0550    8.1289 C.ar    1  UNL1        0.0014
     21 C          17.1365   42.2261    8.6443 C.ar    1  UNL1        0.0000
     22 C          17.9691   43.2312    8.1428 C.ar    1  UNL1        0.0000
     23 C          17.5150   44.0710    7.1218 C.ar    1  UNL1        0.0000
     24 C          16.2281   43.9063    6.6018 C.ar    1  UNL1        0.0000
     25 C          15.3954   42.9015    7.1030 C.ar    1  UNL1        0.0000
@<TRIPOS>BOND
     1    17     1    1
     2    17    18    1
     3     1     5    1
     4     3     4   ar
     5     6     3   ar
     6     8     3    1
     7    10     8    1
     8    10    11    1
     9    10     9    1
    10    11    12    1
    11    12    13    1
    12    13    14    1
    13    14     9    1
    14     7     5   ar
    15    19    20    1
    16    21    22   ar
    17    23    24   ar
    18    25    20   ar
    19    17    15    2
    20    17    16    2
    21     5     6   ar
    22     7     4   ar
    23    18    19    2
    24    20    21   ar
    25    22    23   ar
    26    24    25   ar
    27     1     2    1
@<TRIPOS>MOLECULE
MolPort-039-210-477 CSSS03437094304 PubChem-121017029
 25 27 0 0 0
SMALL
GASTEIGER

@<TRIPOS>ATOM
      1 N          10.3197   39.7315    7.5711 N.pl3   1  UNL1       -0.2119
      2 H           9.8747   38.8863    7.3327 H       1  UNL1        0.1738
      3 N          12.6822   39.5911   10.2191 N.ar    1  UNL1       -0.2456
      4 N          11.6718   40.1573   10.8611 N.ar    1  UNL1       -0.1662
      5 C          11.0732   39.7926    8.7821 C.ar    1  UNL1        0.1043
      6 C          12.3640   39.3427    8.9366 C.ar    1  UNL1        0.1125
      7 C          10.6493   40.3009    9.9955 C.ar    1  UNL1        0.1375
      8 C          13.9529   39.2602   10.8436 C.3     1  UNL1        0.1569
      9 O          14.5817   37.6576    9.1807 O.3     1  UNL1       -0.3542
     10 C          14.3278   37.8151   10.5553 C.3     1  UNL1        0.1395
     11 C          13.2124   36.8653   11.0274 C.3     1  UNL1        0.0317
     12 C          12.9231   35.7744    9.9930 C.3     1  UNL1        0.0051
     13 C          14.2096   35.2562    9.3452 C.3     1  UNL1        0.0322
     14 C          15.1928   36.3979    9.0396 C.3     1  UNL1        0.1421
     15 O           9.4645   40.6530    5.2455 O.2     1  UNL1       -0.1499
     16 O           9.3656   42.1764    7.1711 O.2     1  UNL1       -0.1499
     17 S          10.1583   41.0868    6.5057 S.O2    1  UNL1        0.0750
     18 C          11.7476   41.6917    6.0934 C.2     1  UNL1        0.1439
     19 C          12.4616   42.3635    6.9900 C.2     1  UNL1        0.0216
     20 C          13.8007   42.8948    6.7024 C.ar    1  UNL1        0.0014
     21 C          14.8918   42.3979    7.4238 C.ar    1  UNL1        0.0000
     22 C          16.1804   42.8808    7.1758 C.ar    1  UNL1        0.0000
     23 C          16.3838   43.8643    6.2035 C.ar    1  UNL1        0.0000
     24 C          15.2988   44.3655    5.4788 C.ar    1  UNL1        0.0000
     25 C          14.0104   43.8829    5.7265 C.ar    1  UNL1        0.0000
@<TRIPOS>BOND
     1    17     1    1
     2    17    18    1
     3     1     5    1
     4     3     4   ar
     5     6     3   ar
     6     8     3    1
     7    10     8    1
     8    10    11    1
     9    10     9    1
    10    11    12    1
    11    12    13    1
    12    13    14    1
    13    14     9    1
    14     7     5   ar
    15    19    20    1
    16    21    22   ar
    17    23    24   ar
    18    25    20   ar
    19    17    15    2
    20    17    16    2
    21     5     6   ar
    22     7     4   ar
    23    18    19    2
    24    20    21   ar
    25    22    23   ar
    26    24    25   ar
    27     1     2    1
@<TRIPOS>MOLECULE
MolPort-039-210-477 CSSS03437094304 PubChem-121017029
 25 27 0 0 0
SMALL
GASTEIGER

@<TRIPOS>ATOM
      1 N          10.3962   42.1027    8.5309 N.pl3   1  UNL1       -0.2119
      2 H           9.7077   41.9622    7.8413 H       1  UNL1        0.1738
      3 N          13.8305   41.2091    8.3898 N.ar    1  UNL1       -0.2456
      4 N          13.6481   41.5649    7.1274 N.ar    1  UNL1       -0.1662
      5 C          11.7567   41.8112    8.2119 C.ar    1  UNL1        0.1043
      6 C          12.6976   41.3455    9.1010 C.ar    1  UNL1        0.1125
      7 C          12.3642   41.9454    6.9777 C.ar    1  UNL1        0.1375
      8 C          15.1051   40.7605    8.9271 C.3     1  UNL1        0.1569
      9 O          13.9127   38.6902    8.7821 O.3     1  UNL1       -0.3542
     10 C          15.0042   39.3210    9.4063 C.3     1  UNL1        0.1395
     11 C          14.8730   39.2720   10.9392 C.3     1  UNL1        0.0317
     12 C          13.8065   38.2677   11.3837 C.3     1  UNL1        0.0051
     13 C          13.8386   36.9966   10.5312 C.3     1  UNL1        0.0322
     14 C          14.0569   37.3149    9.0430 C.3     1  UNL1        0.1421
     15 O          10.3240   41.7132   11.1447 O.2     1  UNL1       -0.1499
     16 O          10.5470   44.0285   10.3520 O.2     1  UNL1       -0.1499
     17 S           9.9103   42.6938   10.0841 S.O2    1  UNL1        0.0750
     18 C           8.1689   42.8615   10.1211 C.2     1  UNL1        0.1439
     19 C           7.3934   41.7838   10.1656 C.2     1  UNL1        0.0216
     20 C           5.9268   41.8616   10.1988 C.ar    1  UNL1        0.0014
     21 C           5.2348   41.1253   11.1667 C.ar    1  UNL1        0.0000
     22 C           3.8388   41.1761   11.2273 C.ar    1  UNL1        0.0000
     23 C           3.1275   41.9650   10.3187 C.ar    1  UNL1        0.0000
     24 C           3.8117   42.7034    9.3490 C.ar    1  UNL1        0.0000
     25 C           5.2074   42.6528    9.2882 C.ar    1  UNL1        0.0000
@<TRIPOS>BOND
     1    17     1    1
     2    17    18    1
     3     1     5    1
     4     3     4   ar
     5     6     3   ar
     6     8     3    1
     7    10     8    1
     8    10    11    1
     9    10     9    1
    10    11    12    1
    11    12    13    1
    12    13    14    1
    13    14     9    1
    14     7     5   ar
    15    19    20    1
    16    21    22   ar
    17    23    24   ar
    18    25    20   ar
    19    17    15    2
    20    17    16    2
    21     5     6   ar
    22     7     4   ar
    23    18    19    2
    24    20    21   ar
    25    22    23   ar
    26    24    25   ar
    27     1     2    1
@<TRIPOS>MOLECULE
MolPort-039-210-477 CSSS03437094304 PubChem-121017029
 25 27 0 0 0
SMALL
GASTEIGER

@<TRIPOS>ATOM
      1 N          10.4832   39.8850    6.2776 N.pl3   1  UNL1       -0.2119
      2 H          10.7494   39.2204    5.6018 H       1  UNL1        0.1738
      3 N           7.6364   42.0072    6.2055 N.ar    1  UNL1       -0.2456
      4 N           7.0859   40.8921    5.7504 N.ar    1  UNL1       -0.1662
      5 C           9.2102   40.5189    6.1529 C.ar    1  UNL1        0.1043
      6 C           8.9424   41.8299    6.4720 C.ar    1  UNL1        0.1125
      7 C           8.0386   39.9405    5.7020 C.ar    1  UNL1        0.1375
      8 C           6.9021   43.2450    6.4129 C.3     1  UNL1        0.1569
      9 O           5.7718   42.0142    8.1265 O.3     1  UNL1       -0.3542
     10 C           6.2987   43.2791    7.8081 C.3     1  UNL1        0.1395
     11 C           5.2181   44.3714    7.9006 C.3     1  UNL1        0.0317
     12 C           3.9734   43.8742    8.6403 C.3     1  UNL1        0.0051
     13 C           4.3427   42.9950    9.8378 C.3     1  UNL1        0.0322
     14 C           5.5024   42.0413    9.5074 C.3     1  UNL1        0.1421
     15 O          10.8039   40.7501    8.7551 O.2     1  UNL1       -0.1499
     16 O          12.3391   39.0042    7.9593 O.2     1  UNL1       -0.1499
     17 S          11.5771   40.2402    7.5719 S.O2    1  UNL1        0.0750
     18 C          12.7003   41.4793    7.0573 C.2     1  UNL1        0.1439
     19 C          13.9198   41.5369    7.5812 C.2     1  UNL1        0.0216
     20 C          14.9056   42.5530    7.1889 C.ar    1  UNL1        0.0014
     21 C          14.5465   43.5042    6.2276 C.ar    1  UNL1        0.0000
     22 C          15.4597   44.4859    5.8309 C.ar    1  UNL1        0.0000
     23 C          16.7383   44.5207    6.3948 C.ar    1  UNL1        0.0000
     24 C          17.1043   43.5739    7.3557 C.ar    1  UNL1        0.0000
     25 C          16.1915   42.5923    7.7525 C.ar    1  UNL1        0.0000
@<TRIPOS>BOND
     1    17     1    1
     2    17    18    1
     3     1     5    1
     4     3     4   ar
     5     6     3   ar
     6     8     3    1
     7    10     8    1
     8    10    11    1
     9    10     9    1
    10    11    12    1
    11    12    13    1
    12    13    14    1
    13    14     9    1
    14     7     5   ar
    15    19    20    1
    16    21    22   ar
    17    23    24   ar
    18    25    20   ar
    19    17    15    2
    20    17    16    2
    21     5     6   ar
    22     7     4   ar
    23    18    19    2
    24    20    21   ar
    25    22    23   ar
    26    24    25   ar
    27     1     2    1
@<TRIPOS>MOLECULE
MolPort-039-210-477 CSSS03437094304 PubChem-121017029
 25 27 0 0 0
SMALL
GASTEIGER

@<TRIPOS>ATOM
      1 N          11.3466   39.1070    6.4618 N.pl3   1  UNL1       -0.2119
      2 H          11.9486   38.6602    5.8236 H       1  UNL1        0.1738
      3 N           7.8936   39.8776    6.1516 N.ar    1  UNL1       -0.2456
      4 N           8.1416   39.4935    4.9087 N.ar    1  UNL1       -0.1662
      5 C           9.9920   39.3426    6.0779 C.ar    1  UNL1        0.1043
      6 C           8.9990   39.7998    6.9131 C.ar    1  UNL1        0.1125
      7 C           9.4426   39.1535    4.8238 C.ar    1  UNL1        0.1375
      8 C           6.5831   40.2966    6.6219 C.3     1  UNL1        0.1569
      9 O           5.5469   41.6881    8.2708 O.3     1  UNL1       -0.3542
     10 C           6.6991   41.5493    7.4758 C.3     1  UNL1        0.1395
     11 C           6.9147   42.7879    6.5877 C.3     1  UNL1        0.0317
     12 C           6.0515   43.9674    7.0429 C.3     1  UNL1        0.0051
     13 C           5.9892   44.0646    8.5694 C.3     1  UNL1        0.0322
     14 C           5.8479   42.6800    9.2225 C.3     1  UNL1        0.1421
     15 O          10.8898   40.2551    8.7989 O.2     1  UNL1       -0.1499
     16 O          12.4659   38.3703    8.7536 O.2     1  UNL1       -0.1499
     17 S          11.9715   39.5770    8.0066 S.O2    1  UNL1        0.0750
     18 C          13.2921   40.7023    7.7791 C.2     1  UNL1        0.1439
     19 C          13.1369   41.7682    7.0015 C.2     1  UNL1        0.0216
     20 C          14.2080   42.7473    6.7730 C.ar    1  UNL1        0.0014
     21 C          15.4415   42.5562    7.4053 C.ar    1  UNL1        0.0000
     22 C          16.4832   43.4683    7.2101 C.ar    1  UNL1        0.0000
     23 C          16.2956   44.5773    6.3801 C.ar    1  UNL1        0.0000
     24 C          15.0662   44.7749    5.7449 C.ar    1  UNL1        0.0000
     25 C          14.0246   43.8632    5.9400 C.ar    1  UNL1        0.0000
@<TRIPOS>BOND
     1    17     1    1
     2    17    18    1
     3     1     5    1
     4     3     4   ar
     5     6     3   ar
     6     8     3    1
     7    10     8    1
     8    10    11    1
     9    10     9    1
    10    11    12    1
    11    12    13    1
    12    13    14    1
    13    14     9    1
    14     7     5   ar
    15    19    20    1
    16    21    22   ar
    17    23    24   ar
    18    25    20   ar
    19    17    15    2
    20    17    16    2
    21     5     6   ar
    22     7     4   ar
    23    18    19    2
    24    20    21   ar
    25    22    23   ar
    26    24    25   ar
    27     1     2    1
