@<TRIPOS>MOLECULE
Molport-052-054-864 MCULE-6130002316
 30 33 0 0 0
SMALL
GASTEIGER

@<TRIPOS>ATOM
      1 C           8.5290   41.8475   10.5622 C.ar    1  UNL1        0.1361
      2 C           9.5518   41.4365    9.7081 C.ar    1  UNL1        0.0492
      3 C          10.7317   40.9445   10.2658 C.ar    1  UNL1        0.0644
      4 C           9.8577   41.2797   12.4377 C.ar    1  UNL1        0.1406
      5 C          10.0214   41.1961   13.9121 C.3     1  UNL1        0.0737
      6 N          10.8632   40.8757   11.6187 N.ar    1  UNL1       -0.2348
      7 N           8.7022   41.7609   11.9093 N.ar    1  UNL1       -0.2159
      8 C          11.8401   40.5020    9.3692 C.3     1  UNL1        0.0603
      9 C          11.8141   38.9831    9.1848 C.3     1  UNL1        0.0094
     10 C          12.9485   38.5394    8.2633 C.3     1  UNL1        0.0220
     11 C          14.2908   38.9817    8.8382 C.3     1  UNL1        0.0936
     12 C          13.1914   40.9529    9.9231 C.3     1  UNL1        0.0995
     13 N          14.2625   40.4206    9.0857 N.pl3   1  UNL1       -0.2778
     14 C          15.2382   41.2910    8.4961 C.ar    1  UNL1        0.2208
     15 C          17.4740   42.0607    8.3584 C.ar    1  UNL1        0.1041
     16 C          17.1148   42.9627    7.3589 C.ar    1  UNL1        0.0504
     17 C          15.7835   42.9989    6.9481 C.ar    1  UNL1        0.1536
     18 N          16.5360   41.2452    8.9067 N.ar    1  UNL1       -0.2120
     19 N          14.8739   42.1680    7.5199 N.ar    1  UNL1       -0.2031
     20 C          15.3734   43.9136    5.9209 C.1     1  UNL1        0.1199
     21 N          15.0424   44.6514    5.0930 N.1     1  UNL1       -0.1893
     22 N           7.3129   42.3543   10.0020 N.pl3   1  UNL1       -0.2781
     23 H           7.3798   43.1450    9.4193 H       1  UNL1        0.1555
     24 C           6.0080   41.8076   10.2182 C.ar    1  UNL1        0.1639
     25 C           4.0086   40.6873   11.0485 C.ar    1  UNL1        0.0238
     26 C           3.8545   41.3304    9.8239 C.ar    1  UNL1        0.0633
     27 C           2.5780   41.3492    9.0573 C.3     1  UNL1        0.0524
     28 C           2.9620   39.9286   11.7877 C.3     1  UNL1        0.0395
     29 N           4.9706   41.9541    9.3632 N.ar    1  UNL1       -0.2286
     30 S           5.5911   40.9045   11.5740 S.2     1  UNL1       -0.0561
@<TRIPOS>BOND
     1    24    22    1
     2    24    30   ar
     3     1     7   ar
     4     2     3   ar
     5     8     3    1
     6     8     9    1
     7     9    10    1
     8    10    11    1
     9    11    13    1
    10    12    13    1
    11    12     8    1
    12    14    19   ar
    13    15    18   ar
    14    16    17   ar
    15    17    20    1
    16     4     6   ar
    17     5     4    1
    18    25    30   ar
    19    26    29   ar
    20    27    26    1
    21    28    25    1
    22    22     1    1
    23    13    14    1
    24    24    29   ar
    25     1     2   ar
    26     3     6   ar
    27    14    18   ar
    28    15    16   ar
    29    17    19   ar
    30     4     7   ar
    31    25    26   ar
    32    20    21    3
    33    22    23    1
@<TRIPOS>MOLECULE
Molport-052-054-864 MCULE-6130002316
 30 33 0 0 0
SMALL
GASTEIGER

@<TRIPOS>ATOM
      1 C          11.6009   41.3728    6.8015 C.ar    1  UNL1        0.1361
      2 C          12.2128   40.2503    7.3583 C.ar    1  UNL1        0.0492
      3 C          11.4302   39.3531    8.0848 C.ar    1  UNL1        0.0644
      4 C           9.5163   40.6846    7.6883 C.ar    1  UNL1        0.1406
      5 C           8.0601   40.9210    7.8658 C.3     1  UNL1        0.0737
      6 N          10.0980   39.5866    8.2368 N.ar    1  UNL1       -0.2348
      7 N          10.2654   41.5675    6.9775 N.ar    1  UNL1       -0.2159
      8 C          12.0662   38.1467    8.6916 C.3     1  UNL1        0.0603
      9 C          11.1279   37.4935    9.7089 C.3     1  UNL1        0.0094
     10 C          11.7845   36.2581   10.3219 C.3     1  UNL1        0.0220
     11 C          13.1028   36.6436   10.9863 C.3     1  UNL1        0.0936
     12 C          13.3975   38.5136    9.3469 C.3     1  UNL1        0.0995
     13 N          13.9476   37.3408   10.0205 N.pl3   1  UNL1       -0.2778
     14 C          15.2673   36.8683    9.7167 C.ar    1  UNL1        0.2208
     15 C          16.6850   35.1874    8.8366 C.ar    1  UNL1        0.1041
     16 C          17.8056   35.9620    9.1293 C.ar    1  UNL1        0.0504
     17 C          17.6118   37.2064    9.7263 C.ar    1  UNL1        0.1536
     18 N          15.4428   35.6503    9.1332 N.ar    1  UNL1       -0.2120
     19 N          16.3542   37.6355   10.0080 N.ar    1  UNL1       -0.2031
     20 C          18.7402   38.0347   10.0432 C.1     1  UNL1        0.1199
     21 N          19.6501   38.7029   10.2981 N.1     1  UNL1       -0.1893
     22 N          12.3934   42.3011    6.0534 N.pl3   1  UNL1       -0.2781
     23 H          11.9708   42.7297    5.2744 H       1  UNL1        0.1555
     24 C          13.7486   42.6583    6.3435 C.ar    1  UNL1        0.1639
     25 C          15.9931   43.6067    6.4139 C.ar    1  UNL1        0.0238
     26 C          15.7327   42.6439    7.3846 C.ar    1  UNL1        0.0633
     27 C          16.7296   42.2069    8.4008 C.3     1  UNL1        0.0524
     28 C          17.2703   44.3481    6.2228 C.3     1  UNL1        0.0395
     29 N          14.4808   42.1167    7.3431 N.ar    1  UNL1       -0.2286
     30 S          14.6144   43.8068    5.4723 S.2     1  UNL1       -0.0561
@<TRIPOS>BOND
     1    24    22    1
     2    24    30   ar
     3     1     7   ar
     4     2     3   ar
     5     8     3    1
     6     8     9    1
     7     9    10    1
     8    10    11    1
     9    11    13    1
    10    12    13    1
    11    12     8    1
    12    14    19   ar
    13    15    18   ar
    14    16    17   ar
    15    17    20    1
    16     4     6   ar
    17     5     4    1
    18    25    30   ar
    19    26    29   ar
    20    27    26    1
    21    28    25    1
    22    22     1    1
    23    13    14    1
    24    24    29   ar
    25     1     2   ar
    26     3     6   ar
    27    14    18   ar
    28    15    16   ar
    29    17    19   ar
    30     4     7   ar
    31    25    26   ar
    32    20    21    3
    33    22    23    1
@<TRIPOS>MOLECULE
Molport-052-054-864 MCULE-6130002316
 30 33 0 0 0
SMALL
GASTEIGER

@<TRIPOS>ATOM
      1 C          11.5791   40.9651    6.7046 C.ar    1  UNL1        0.1361
      2 C          12.4523   40.1627    7.4383 C.ar    1  UNL1        0.0492
      3 C          11.9360   39.0587    8.1166 C.ar    1  UNL1        0.0644
      4 C           9.7660   39.5784    7.3330 C.ar    1  UNL1        0.1406
      5 C           8.3148   39.2646    7.2754 C.3     1  UNL1        0.0737
      6 N          10.6039   38.7874    8.0521 N.ar    1  UNL1       -0.2348
      7 N          10.2540   40.6571    6.6666 N.ar    1  UNL1       -0.2159
      8 C          12.8531   38.1886    8.9103 C.3     1  UNL1        0.0603
      9 C          12.0567   37.2263    9.7944 C.3     1  UNL1        0.0094
     10 C          13.0023   36.3373   10.5997 C.3     1  UNL1        0.0220
     11 C          13.9285   37.1990   11.4526 C.3     1  UNL1        0.0936
     12 C          13.7999   39.0382    9.7578 C.3     1  UNL1        0.0995
     13 N          14.6139   38.1662   10.5998 N.pl3   1  UNL1       -0.2778
     14 C          16.0460   38.2353   10.5642 C.ar    1  UNL1        0.2208
     15 C          18.0229   39.4234   10.0252 C.ar    1  UNL1        0.1041
     16 C          18.8006   38.3689   10.4995 C.ar    1  UNL1        0.0504
     17 C          18.1517   37.2450   11.0075 C.ar    1  UNL1        0.1536
     18 N          16.6676   39.3396   10.0652 N.ar    1  UNL1       -0.2120
     19 N          16.7944   37.1976   11.0310 N.ar    1  UNL1       -0.2031
     20 C          18.9168   36.1379   11.5062 C.1     1  UNL1        0.1199
     21 N          19.5337   35.2453   11.9088 N.1     1  UNL1       -0.1893
     22 N          12.0968   42.1011    6.0039 N.pl3   1  UNL1       -0.2781
     23 H          11.5504   42.4665    5.2711 H       1  UNL1        0.1555
     24 C          13.3423   42.7500    6.2797 C.ar    1  UNL1        0.1639
     25 C          15.5473   43.4221    7.0727 C.ar    1  UNL1        0.0238
     26 C          14.9516   44.3057    6.1775 C.ar    1  UNL1        0.0633
     27 C          15.5890   45.5720    5.7216 C.3     1  UNL1        0.0524
     28 C          16.8823   43.5772    7.7137 C.3     1  UNL1        0.0395
     29 N          13.7225   43.9288    5.7370 N.ar    1  UNL1       -0.2286
     30 S          14.5047   42.1266    7.3227 S.2     1  UNL1       -0.0561
@<TRIPOS>BOND
     1    24    22    1
     2    24    30   ar
     3     1     7   ar
     4     2     3   ar
     5     8     3    1
     6     8     9    1
     7     9    10    1
     8    10    11    1
     9    11    13    1
    10    12    13    1
    11    12     8    1
    12    14    19   ar
    13    15    18   ar
    14    16    17   ar
    15    17    20    1
    16     4     6   ar
    17     5     4    1
    18    25    30   ar
    19    26    29   ar
    20    27    26    1
    21    28    25    1
    22    22     1    1
    23    13    14    1
    24    24    29   ar
    25     1     2   ar
    26     3     6   ar
    27    14    18   ar
    28    15    16   ar
    29    17    19   ar
    30     4     7   ar
    31    25    26   ar
    32    20    21    3
    33    22    23    1
@<TRIPOS>MOLECULE
Molport-052-054-864 MCULE-6130002316
 30 33 0 0 0
SMALL
GASTEIGER

@<TRIPOS>ATOM
      1 C           8.2848   42.0322   11.2773 C.ar    1  UNL1        0.1361
      2 C           9.3832   41.6151   10.5263 C.ar    1  UNL1        0.0492
      3 C          10.4579   41.0199   11.1868 C.ar    1  UNL1        0.0644
      4 C           9.3395   41.2706   13.2555 C.ar    1  UNL1        0.1406
      5 C           9.3144   41.0857   14.7296 C.3     1  UNL1        0.0737
      6 N          10.4167   40.8592   12.5377 N.ar    1  UNL1       -0.2348
      7 N           8.2848   41.8517   12.6263 N.ar    1  UNL1       -0.2159
      8 C          11.6448   40.5690   10.4018 C.3     1  UNL1        0.0603
      9 C          12.0584   41.6351    9.3848 C.3     1  UNL1        0.0094
     10 C          13.2754   41.1676    8.5890 C.3     1  UNL1        0.0220
     11 C          12.9625   39.8522    7.8821 C.3     1  UNL1        0.0936
     12 C          11.3527   39.2424    9.7010 C.3     1  UNL1        0.0995
     13 N          12.4886   38.8764    8.8597 N.pl3   1  UNL1       -0.2778
     14 C          13.1405   37.6081    9.0133 C.ar    1  UNL1        0.2208
     15 C          13.1454   35.4032    9.8783 C.ar    1  UNL1        0.1041
     16 C          14.3935   35.1680    9.3051 C.ar    1  UNL1        0.0504
     17 C          14.9929   36.1966    8.5806 C.ar    1  UNL1        0.1536
     18 N          12.5437   36.6112    9.7238 N.ar    1  UNL1       -0.2120
     19 N          14.3604   37.3913    8.4479 N.ar    1  UNL1       -0.2031
     20 C          16.2779   35.9941    7.9742 C.1     1  UNL1        0.1199
     21 N          17.3139   35.8309    7.4847 N.1     1  UNL1       -0.1893
     22 N           7.1754   42.6443   10.6111 N.pl3   1  UNL1       -0.2781
     23 H           7.3144   43.5445   10.2376 H       1  UNL1        0.1555
     24 C           5.8811   42.0571   10.4427 C.ar    1  UNL1        0.1639
     25 C           3.6406   41.4062    9.7365 C.ar    1  UNL1        0.0238
     26 C           4.1321   40.7138   10.8392 C.ar    1  UNL1        0.0633
     27 C           3.3700   39.6519   11.5528 C.3     1  UNL1        0.0524
     28 C           2.3109   41.2172    9.0934 C.3     1  UNL1        0.0395
     29 N           5.3813   41.0785   11.2309 N.ar    1  UNL1       -0.2286
     30 S           4.8043   42.5108    9.2334 S.2     1  UNL1       -0.0561
@<TRIPOS>BOND
     1    24    22    1
     2    24    30   ar
     3     1     7   ar
     4     2     3   ar
     5     8     3    1
     6     8     9    1
     7     9    10    1
     8    10    11    1
     9    11    13    1
    10    12    13    1
    11    12     8    1
    12    14    19   ar
    13    15    18   ar
    14    16    17   ar
    15    17    20    1
    16     4     6   ar
    17     5     4    1
    18    25    30   ar
    19    26    29   ar
    20    27    26    1
    21    28    25    1
    22    22     1    1
    23    13    14    1
    24    24    29   ar
    25     1     2   ar
    26     3     6   ar
    27    14    18   ar
    28    15    16   ar
    29    17    19   ar
    30     4     7   ar
    31    25    26   ar
    32    20    21    3
    33    22    23    1
@<TRIPOS>MOLECULE
Molport-052-054-864 MCULE-6130002316
 30 33 0 0 0
SMALL
GASTEIGER

@<TRIPOS>ATOM
      1 C           7.7639   41.7012   11.2965 C.ar    1  UNL1        0.1361
      2 C           8.7162   41.2775   10.3700 C.ar    1  UNL1        0.0492
      3 C           9.9413   40.8038   10.8392 C.ar    1  UNL1        0.0644
      4 C           9.2459   41.1808   13.0680 C.ar    1  UNL1        0.1406
      5 C           9.5305   41.1296   14.5254 C.3     1  UNL1        0.0737
      6 N          10.1837   40.7647   12.1779 N.ar    1  UNL1       -0.2348
      7 N           8.0476   41.6444   12.6263 N.ar    1  UNL1       -0.2159
      8 C          10.9755   40.3482    9.8640 C.3     1  UNL1        0.0603
      9 C          10.9110   38.8310    9.6752 C.3     1  UNL1        0.0094
     10 C          11.9694   38.3739    8.6733 C.3     1  UNL1        0.0220
     11 C          13.3563   38.7907    9.1533 C.3     1  UNL1        0.0936
     12 C          12.3702   40.7737   10.3224 C.3     1  UNL1        0.0995
     13 N          13.3700   40.2285    9.4086 N.pl3   1  UNL1       -0.2778
     14 C          14.3159   41.0859    8.7550 C.ar    1  UNL1        0.2208
     15 C          16.5495   41.8162    8.4587 C.ar    1  UNL1        0.1041
     16 C          16.1348   42.7329    7.4946 C.ar    1  UNL1        0.0504
     17 C          14.7779   42.7967    7.1831 C.ar    1  UNL1        0.1536
     18 N          15.6392   41.0133    9.0687 N.ar    1  UNL1       -0.2120
     19 N          13.8973   41.9776    7.8144 N.ar    1  UNL1       -0.2031
     20 C          14.3107   43.7272    6.1953 C.1     1  UNL1        0.1199
     21 N          13.9342   44.4772    5.3983 N.1     1  UNL1       -0.1893
     22 N           6.5025   42.1894   10.8276 N.pl3   1  UNL1       -0.2781
     23 H           5.7355   42.1196   11.4409 H       1  UNL1        0.1555
     24 C           6.2631   42.7706    9.5418 C.ar    1  UNL1        0.1639
     25 C           6.2792   43.4496    7.2006 C.ar    1  UNL1        0.0238
     26 C           5.2921   44.0483    7.9780 C.ar    1  UNL1        0.0633
     27 C           4.3079   45.0317    7.4471 C.3     1  UNL1        0.0524
     28 C           6.5211   43.6758    5.7488 C.3     1  UNL1        0.0395
     29 N           5.2853   43.6682    9.2827 N.ar    1  UNL1       -0.2286
     30 S           7.1735   42.4107    8.1745 S.2     1  UNL1       -0.0561
@<TRIPOS>BOND
     1    24    22    1
     2    24    30   ar
     3     1     7   ar
     4     2     3   ar
     5     8     3    1
     6     8     9    1
     7     9    10    1
     8    10    11    1
     9    11    13    1
    10    12    13    1
    11    12     8    1
    12    14    19   ar
    13    15    18   ar
    14    16    17   ar
    15    17    20    1
    16     4     6   ar
    17     5     4    1
    18    25    30   ar
    19    26    29   ar
    20    27    26    1
    21    28    25    1
    22    22     1    1
    23    13    14    1
    24    24    29   ar
    25     1     2   ar
    26     3     6   ar
    27    14    18   ar
    28    15    16   ar
    29    17    19   ar
    30     4     7   ar
    31    25    26   ar
    32    20    21    3
    33    22    23    1
@<TRIPOS>MOLECULE
Molport-052-054-864 MCULE-6130002316
 30 33 0 0 0
SMALL
GASTEIGER

@<TRIPOS>ATOM
      1 C          12.0275   41.8655    6.1602 C.ar    1  UNL1        0.1361
      2 C          11.3495   42.2555    7.3147 C.ar    1  UNL1        0.0492
      3 C          10.1945   41.5632    7.6781 C.ar    1  UNL1        0.0644
      4 C          10.4252   40.1632    5.7860 C.ar    1  UNL1        0.1406
      5 C           9.9271   39.0337    4.9590 C.3     1  UNL1        0.0737
      6 N           9.7537   40.5313    6.9078 N.ar    1  UNL1       -0.2348
      7 N          11.5520   40.8276    5.4193 N.ar    1  UNL1       -0.2159
      8 C           9.4521   41.9665    8.9087 C.3     1  UNL1        0.0603
      9 C          10.3805   41.9684   10.1252 C.3     1  UNL1        0.0094
     10 C           9.6143   42.3859   11.3788 C.3     1  UNL1        0.0220
     11 C           8.4381   41.4419   11.6098 C.3     1  UNL1        0.0936
     12 C           8.2595   41.0400    9.1444 C.3     1  UNL1        0.0995
     13 N           7.6132   41.3904   10.4059 N.pl3   1  UNL1       -0.2778
     14 C           6.2153   41.7078   10.4540 C.ar    1  UNL1        0.2208
     15 C           4.0670   41.3445   11.3829 C.ar    1  UNL1        0.1041
     16 C           3.5276   42.3215   10.5486 C.ar    1  UNL1        0.0504
     17 C           4.3802   42.9809    9.6651 C.ar    1  UNL1        0.1536
     18 N           5.3930   41.0558   11.3222 N.ar    1  UNL1       -0.2120
     19 N           5.7008   42.6649    9.6330 N.ar    1  UNL1       -0.2031
     20 C           3.8636   43.9939    8.7894 C.1     1  UNL1        0.1199
     21 N           3.4474   44.8112    8.0835 N.1     1  UNL1       -0.1893
     22 N          13.2144   42.5681    5.7766 N.pl3   1  UNL1       -0.2781
     23 H          13.2070   43.0228    4.9034 H       1  UNL1        0.1555
     24 C          14.4107   42.6646    6.5562 C.ar    1  UNL1        0.1639
     25 C          16.5216   43.2917    7.6018 C.ar    1  UNL1        0.0238
     26 C          15.9671   42.1030    8.0671 C.ar    1  UNL1        0.0633
     27 C          16.5933   41.2585    9.1217 C.3     1  UNL1        0.0524
     28 C          17.7959   43.9124    8.0582 C.3     1  UNL1        0.0395
     29 N          14.7904   41.7556    7.4826 N.ar    1  UNL1       -0.2286
     30 S          15.5090   43.9308    6.4212 S.2     1  UNL1       -0.0561
@<TRIPOS>BOND
     1    24    22    1
     2    24    30   ar
     3     1     7   ar
     4     2     3   ar
     5     8     3    1
     6     8     9    1
     7     9    10    1
     8    10    11    1
     9    11    13    1
    10    12    13    1
    11    12     8    1
    12    14    19   ar
    13    15    18   ar
    14    16    17   ar
    15    17    20    1
    16     4     6   ar
    17     5     4    1
    18    25    30   ar
    19    26    29   ar
    20    27    26    1
    21    28    25    1
    22    22     1    1
    23    13    14    1
    24    24    29   ar
    25     1     2   ar
    26     3     6   ar
    27    14    18   ar
    28    15    16   ar
    29    17    19   ar
    30     4     7   ar
    31    25    26   ar
    32    20    21    3
    33    22    23    1
@<TRIPOS>MOLECULE
Molport-052-054-864 MCULE-6130002316
 30 33 0 0 0
SMALL
GASTEIGER

@<TRIPOS>ATOM
      1 C          11.6621   41.1711    6.8638 C.ar    1  UNL1        0.1361
      2 C          12.1856   39.9850    7.3773 C.ar    1  UNL1        0.0492
      3 C          11.3675   39.1811    8.1710 C.ar    1  UNL1        0.0644
      4 C           9.5916   40.7228    7.9210 C.ar    1  UNL1        0.1406
      5 C           8.1909   41.1229    8.2140 C.3     1  UNL1        0.0737
      6 N          10.0873   39.5645    8.4285 N.ar    1  UNL1       -0.2348
      7 N          10.3761   41.5161    7.1458 N.ar    1  UNL1       -0.2159
      8 C          11.9094   37.9088    8.7329 C.3     1  UNL1        0.0603
      9 C          11.1514   37.5106   10.0012 C.3     1  UNL1        0.0094
     10 C          11.7093   36.2062   10.5672 C.3     1  UNL1        0.0220
     11 C          13.1977   36.3612   10.8647 C.3     1  UNL1        0.0936
     12 C          13.4047   38.0426    9.0204 C.3     1  UNL1        0.0995
     13 N          13.8873   36.8238    9.6634 N.pl3   1  UNL1       -0.2778
     14 C          14.9854   36.0847    9.1112 C.ar    1  UNL1        0.2208
     15 C          17.1571   36.0496    8.1664 C.ar    1  UNL1        0.1041
     16 C          17.0984   34.6621    8.0525 C.ar    1  UNL1        0.0504
     17 C          15.9453   34.0111    8.4870 C.ar    1  UNL1        0.1536
     18 N          16.1067   36.7333    8.6904 N.ar    1  UNL1       -0.2120
     19 N          14.9152   34.7287    9.0055 N.ar    1  UNL1       -0.2031
     20 C          15.8459   32.5828    8.3873 C.1     1  UNL1        0.1199
     21 N          15.7661   31.4310    8.3073 N.1     1  UNL1       -0.1893
     22 N          12.4916   42.0048    6.0477 N.pl3   1  UNL1       -0.2781
     23 H          12.1303   42.2856    5.1760 H       1  UNL1        0.1555
     24 C          13.8024   42.4642    6.3929 C.ar    1  UNL1        0.1639
     25 C          15.9471   43.6078    6.5796 C.ar    1  UNL1        0.0238
     26 C          15.7606   42.5610    7.4777 C.ar    1  UNL1        0.0633
     27 C          16.7760   42.1490    8.4861 C.3     1  UNL1        0.0524
     28 C          17.1528   44.4746    6.4685 C.3     1  UNL1        0.0395
     29 N          14.5642   41.9251    7.3715 N.ar    1  UNL1       -0.2286
     30 S          14.5725   43.7443    5.6208 S.2     1  UNL1       -0.0561
@<TRIPOS>BOND
     1    24    22    1
     2    24    30   ar
     3     1     7   ar
     4     2     3   ar
     5     8     3    1
     6     8     9    1
     7     9    10    1
     8    10    11    1
     9    11    13    1
    10    12    13    1
    11    12     8    1
    12    14    19   ar
    13    15    18   ar
    14    16    17   ar
    15    17    20    1
    16     4     6   ar
    17     5     4    1
    18    25    30   ar
    19    26    29   ar
    20    27    26    1
    21    28    25    1
    22    22     1    1
    23    13    14    1
    24    24    29   ar
    25     1     2   ar
    26     3     6   ar
    27    14    18   ar
    28    15    16   ar
    29    17    19   ar
    30     4     7   ar
    31    25    26   ar
    32    20    21    3
    33    22    23    1
@<TRIPOS>MOLECULE
Molport-052-054-864 MCULE-6130002316
 30 33 0 0 0
SMALL
GASTEIGER

@<TRIPOS>ATOM
      1 C          12.1992   41.9893    6.4308 C.ar    1  UNL1        0.1361
      2 C          12.4746   40.9883    7.3618 C.ar    1  UNL1        0.0492
      3 C          13.7263   40.9733    7.9772 C.ar    1  UNL1        0.0644
      4 C          14.3637   42.8932    6.7521 C.ar    1  UNL1        0.1406
      5 C          15.3830   43.9225    6.4213 C.3     1  UNL1        0.0737
      6 N          14.6470   41.9244    7.6610 N.ar    1  UNL1       -0.2348
      7 N          13.1488   42.9213    6.1447 N.ar    1  UNL1       -0.2159
      8 C          14.0424   39.9086    8.9745 C.3     1  UNL1        0.0603
      9 C          13.1918   40.0777   10.2354 C.3     1  UNL1        0.0094
     10 C          13.5185   38.9825   11.2486 C.3     1  UNL1        0.0220
     11 C          15.0027   39.0229   11.5999 C.3     1  UNL1        0.0936
     12 C          15.5303   39.9250    9.3241 C.3     1  UNL1        0.0995
     13 N          15.7939   38.9461   10.3749 N.pl3   1  UNL1       -0.2778
     14 C          16.7780   37.9185   10.1943 C.ar    1  UNL1        0.2208
     15 C          18.7596   36.8366   10.9105 C.ar    1  UNL1        0.1041
     16 C          18.6683   35.9394    9.8483 C.ar    1  UNL1        0.0504
     17 C          17.5978   36.0671    8.9650 C.ar    1  UNL1        0.1536
     18 N          17.8192   37.8047   11.0648 N.ar    1  UNL1       -0.2120
     19 N          16.6770   37.0479    9.1518 N.ar    1  UNL1       -0.2031
     20 C          17.4677   35.1623    7.8585 C.1     1  UNL1        0.1199
     21 N          17.3626   34.4332    6.9659 N.1     1  UNL1       -0.1893
     22 N          10.9181   42.0157    5.7925 N.pl3   1  UNL1       -0.2781
     23 H          10.8860   42.3241    4.8581 H       1  UNL1        0.1555
     24 C           9.6801   41.6312    6.3990 C.ar    1  UNL1        0.1639
     25 C           7.7442   41.2950    7.8418 C.ar    1  UNL1        0.0238
     26 C           7.6957   40.6161    6.6278 C.ar    1  UNL1        0.0633
     27 C           6.5610   39.7443    6.2155 C.3     1  UNL1        0.0524
     28 C           6.7071   41.2734    8.9101 C.3     1  UNL1        0.0395
     29 N           8.7761   40.8052    5.8254 N.ar    1  UNL1       -0.2286
     30 S           9.1840   42.1604    7.9161 S.2     1  UNL1       -0.0561
@<TRIPOS>BOND
     1    24    22    1
     2    24    30   ar
     3     1     7   ar
     4     2     3   ar
     5     8     3    1
     6     8     9    1
     7     9    10    1
     8    10    11    1
     9    11    13    1
    10    12    13    1
    11    12     8    1
    12    14    19   ar
    13    15    18   ar
    14    16    17   ar
    15    17    20    1
    16     4     6   ar
    17     5     4    1
    18    25    30   ar
    19    26    29   ar
    20    27    26    1
    21    28    25    1
    22    22     1    1
    23    13    14    1
    24    24    29   ar
    25     1     2   ar
    26     3     6   ar
    27    14    18   ar
    28    15    16   ar
    29    17    19   ar
    30     4     7   ar
    31    25    26   ar
    32    20    21    3
    33    22    23    1
@<TRIPOS>MOLECULE
Molport-052-054-864 MCULE-6130002316
 30 33 0 0 0
SMALL
GASTEIGER

@<TRIPOS>ATOM
      1 C           8.2277   39.5419    5.9292 C.ar    1  UNL1        0.1361
      2 C           9.4013   39.9268    6.5765 C.ar    1  UNL1        0.0492
      3 C          10.6170   39.7567    5.9143 C.ar    1  UNL1        0.0644
      4 C           9.4847   38.8529    4.0449 C.ar    1  UNL1        0.1406
      5 C           9.5280   38.2723    2.6779 C.3     1  UNL1        0.0737
      6 N          10.6366   39.2230    4.6624 N.ar    1  UNL1       -0.2348
      7 N           8.2928   39.0129    4.6770 N.ar    1  UNL1       -0.2159
      8 C          11.8853   40.1595    6.5905 C.3     1  UNL1        0.0603
      9 C          12.0450   39.4255    7.9238 C.3     1  UNL1        0.0094
     10 C          13.3466   39.8403    8.6071 C.3     1  UNL1        0.0220
     11 C          13.3622   41.3500    8.8267 C.3     1  UNL1        0.0936
     12 C          11.9238   41.6728    6.8023 C.3     1  UNL1        0.0995
     13 N          13.1229   42.0282    7.5557 N.pl3   1  UNL1       -0.2778
     14 C          14.0555   42.9907    7.0449 C.ar    1  UNL1        0.2208
     15 C          14.5445   44.7854    5.5786 C.ar    1  UNL1        0.1041
     16 C          15.8486   44.8442    6.0658 C.ar    1  UNL1        0.0504
     17 C          16.2243   43.9430    7.0603 C.ar    1  UNL1        0.1536
     18 N          13.6754   43.8658    6.0730 N.ar    1  UNL1       -0.2120
     19 N          15.3273   43.0376    7.5299 N.ar    1  UNL1       -0.2031
     20 C          17.5584   43.9715    7.5889 C.1     1  UNL1        0.1199
     21 N          18.6340   43.9951    8.0152 N.1     1  UNL1       -0.1893
     22 N           6.9735   39.7115    6.5983 N.pl3   1  UNL1       -0.2781
     23 H           6.3603   38.9414    6.6092 H       1  UNL1        0.1555
     24 C           6.5365   40.9071    7.2526 C.ar    1  UNL1        0.1639
     25 C           6.0782   43.1907    7.9718 C.ar    1  UNL1        0.0238
     26 C           5.4978   42.2004    8.7589 C.ar    1  UNL1        0.0633
     27 C           4.6568   42.4848    9.9544 C.3     1  UNL1        0.0524
     28 C           5.9670   44.6616    8.1752 C.3     1  UNL1        0.0395
     29 N           5.7549   40.9283    8.3559 N.ar    1  UNL1       -0.2286
     30 S           6.9412   42.4536    6.7310 S.2     1  UNL1       -0.0561
@<TRIPOS>BOND
     1    24    22    1
     2    24    30   ar
     3     1     7   ar
     4     2     3   ar
     5     8     3    1
     6     8     9    1
     7     9    10    1
     8    10    11    1
     9    11    13    1
    10    12    13    1
    11    12     8    1
    12    14    19   ar
    13    15    18   ar
    14    16    17   ar
    15    17    20    1
    16     4     6   ar
    17     5     4    1
    18    25    30   ar
    19    26    29   ar
    20    27    26    1
    21    28    25    1
    22    22     1    1
    23    13    14    1
    24    24    29   ar
    25     1     2   ar
    26     3     6   ar
    27    14    18   ar
    28    15    16   ar
    29    17    19   ar
    30     4     7   ar
    31    25    26   ar
    32    20    21    3
    33    22    23    1
@<TRIPOS>MOLECULE
Molport-052-054-864 MCULE-6130002316
 30 33 0 0 0
SMALL
GASTEIGER

@<TRIPOS>ATOM
      1 C          12.4545   41.5587    7.3284 C.ar    1  UNL1        0.1361
      2 C          11.0698   41.4392    7.2152 C.ar    1  UNL1        0.0492
      3 C          10.4675   40.2431    7.6052 C.ar    1  UNL1        0.0644
      4 C          12.5811   39.3562    8.1878 C.ar    1  UNL1        0.1406
      5 C          13.3989   38.2320    8.7124 C.3     1  UNL1        0.0737
      6 N          11.2333   39.2246    8.0832 N.ar    1  UNL1       -0.2348
      7 N          13.1822   40.5153    7.8123 N.ar    1  UNL1       -0.2159
      8 C           8.9869   40.0935    7.4893 C.3     1  UNL1        0.0603
      9 C           8.6127   39.4145    6.1699 C.3     1  UNL1        0.0094
     10 C           7.0969   39.2617    6.0611 C.3     1  UNL1        0.0220
     11 C           6.4263   40.6283    6.1639 C.3     1  UNL1        0.0936
     12 C           8.2988   41.4532    7.6077 C.3     1  UNL1        0.0995
     13 N           6.8642   41.2932    7.3881 N.pl3   1  UNL1       -0.2778
     14 C           5.9147   41.7459    8.3631 C.ar    1  UNL1        0.2208
     15 C           4.5626   43.4762    9.2507 C.ar    1  UNL1        0.1041
     16 C           4.0858   42.6147   10.2366 C.ar    1  UNL1        0.0504
     17 C           4.5561   41.3028   10.2523 C.ar    1  UNL1        0.1536
     18 N           5.4631   43.0305    8.3365 N.ar    1  UNL1       -0.2120
     19 N           5.4566   40.8935    9.3215 N.ar    1  UNL1       -0.2031
     20 C           4.0891   40.3842   11.2512 C.1     1  UNL1        0.1199
     21 N           3.7125   39.6430   12.0563 N.1     1  UNL1       -0.1893
     22 N          13.0846   42.7813    6.9315 N.pl3   1  UNL1       -0.2781
     23 H          12.4973   43.5318    6.6841 H       1  UNL1        0.1555
     24 C          14.4968   43.0040    6.8644 C.ar    1  UNL1        0.1639
     25 C          16.7736   43.6687    6.3016 C.ar    1  UNL1        0.0238
     26 C          16.6575   42.8842    7.4454 C.ar    1  UNL1        0.0633
     27 C          17.8178   42.4677    8.2807 C.3     1  UNL1        0.0524
     28 C          18.0342   44.2142    5.7265 C.3     1  UNL1        0.0395
     29 N          15.3873   42.5150    7.7569 N.ar    1  UNL1       -0.2286
     30 S          15.2391   43.9095    5.6575 S.2     1  UNL1       -0.0561
@<TRIPOS>BOND
     1    24    22    1
     2    24    30   ar
     3     1     7   ar
     4     2     3   ar
     5     8     3    1
     6     8     9    1
     7     9    10    1
     8    10    11    1
     9    11    13    1
    10    12    13    1
    11    12     8    1
    12    14    19   ar
    13    15    18   ar
    14    16    17   ar
    15    17    20    1
    16     4     6   ar
    17     5     4    1
    18    25    30   ar
    19    26    29   ar
    20    27    26    1
    21    28    25    1
    22    22     1    1
    23    13    14    1
    24    24    29   ar
    25     1     2   ar
    26     3     6   ar
    27    14    18   ar
    28    15    16   ar
    29    17    19   ar
    30     4     7   ar
    31    25    26   ar
    32    20    21    3
    33    22    23    1
