@<TRIPOS>MOLECULE
Molport-046-947-246 MCULE-3727816621 MCULE-7545957969 PubChem-110089778
 23 25 0 0 0
SMALL
GASTEIGER

@<TRIPOS>ATOM
      1 C          12.0326   41.8030    6.8379 C.ar    1  UNL1        0.1357
      2 C          10.3493   41.6537    8.5004 C.ar    1  UNL1        0.1411
      3 C          10.0203   40.5533    6.4341 C.ar    1  UNL1        0.0635
      4 C          11.2577   41.0095    5.9850 C.ar    1  UNL1        0.0492
      5 C           9.1747   39.7088    5.5514 C.3     1  UNL1        0.0522
      6 N          11.5587   42.1057    8.0756 N.ar    1  UNL1       -0.2159
      7 N           9.5878   40.8809    7.6785 N.ar    1  UNL1       -0.2349
      8 C           9.8695   42.0111    9.8681 C.3     1  UNL1        0.0744
      9 C          10.2970   40.9505   10.8814 C.3     1  UNL1        0.0104
     10 C           9.7163   41.2691   12.2552 C.3     1  UNL1        0.0176
     11 C           8.2037   41.4451   12.1422 C.3     1  UNL1        0.0686
     12 C           8.3478   42.1645    9.8829 C.3     1  UNL1        0.0761
     13 N           7.8944   42.5381   11.2216 N.3     1  UNL1       -0.2971
     14 H           8.3742   43.3865   11.5223 H       1  UNL1        0.1233
     15 N          13.3163   42.3088    6.4450 N.pl3   1  UNL1       -0.2833
     16 H          13.3587   42.7579    5.5699 H       1  UNL1        0.1550
     17 C          17.8320   43.9990    7.3323 C.3     1  UNL1        0.0521
     18 C          16.7402   43.0364    7.6314 C.ar    1  UNL1        0.0608
     19 C          14.5449   42.2352    7.1810 C.ar    1  UNL1        0.1328
     20 C          14.6863   41.2549    8.1668 C.ar    1  UNL1        0.0344
     21 C          15.8779   41.1739    8.8895 C.ar    1  UNL1        0.0041
     22 C          16.9147   42.0691    8.6230 C.ar    1  UNL1        0.0148
     23 N          15.5714   43.0984    6.9385 N.ar    1  UNL1       -0.2349
@<TRIPOS>BOND
     1    17    18    1
     2    19    23   ar
     3    19    15    1
     4    20    21   ar
     5    22    18   ar
     6     2     6   ar
     7     3     7   ar
     8     4     1   ar
     9     5     3    1
    10     8     2    1
    11     8     9    1
    12     9    10    1
    13    10    11    1
    14    11    13    1
    15    12    13    1
    16    12     8    1
    17    15     1    1
    18    18    23   ar
    19    19    20   ar
    20    21    22   ar
    21     1     6   ar
    22     2     7   ar
    23     3     4   ar
    24    15    16    1
    25    13    14    1
@<TRIPOS>MOLECULE
Molport-046-947-246 MCULE-3727816621 MCULE-7545957969 PubChem-110089778
 23 25 0 0 0
SMALL
GASTEIGER

@<TRIPOS>ATOM
      1 C          13.1039   41.0672    8.6303 C.ar    1  UNL1        0.1357
      2 C          11.4513   41.2990   10.3141 C.ar    1  UNL1        0.1411
      3 C          13.2929   39.8690   10.7046 C.ar    1  UNL1        0.0635
      4 C          13.8079   40.1756    9.4469 C.ar    1  UNL1        0.0492
      5 C          14.0177   38.9256   11.5945 C.3     1  UNL1        0.0522
      6 N          11.9420   41.6073    9.0846 N.ar    1  UNL1       -0.2159
      7 N          12.1286   40.4329   11.1163 N.ar    1  UNL1       -0.2349
      8 C          10.1715   41.9167   10.7714 C.3     1  UNL1        0.0744
      9 C           9.5731   41.1183   11.9284 C.3     1  UNL1        0.0104
     10 C           8.2167   41.6946   12.3211 C.3     1  UNL1        0.0176
     11 C           7.3177   41.7705   11.0892 C.3     1  UNL1        0.0686
     12 C           9.1695   41.9973    9.6187 C.3     1  UNL1        0.0761
     13 N           7.9306   42.6259   10.0742 N.3     1  UNL1       -0.2971
     14 H           8.1371   43.5407   10.4752 H       1  UNL1        0.1233
     15 N          13.5721   41.4303    7.3237 N.pl3   1  UNL1       -0.2833
     16 H          13.2848   40.8511    6.5812 H       1  UNL1        0.1550
     17 C          17.7851   43.8837    7.8396 C.3     1  UNL1        0.0521
     18 C          16.4471   43.7499    7.2074 C.ar    1  UNL1        0.0608
     19 C          14.4107   42.5402    6.9754 C.ar    1  UNL1        0.1328
     20 C          13.9468   43.4739    6.0448 C.ar    1  UNL1        0.0344
     21 C          14.7546   44.5584    5.6983 C.ar    1  UNL1        0.0041
     22 C          16.0144   44.7010    6.2814 C.ar    1  UNL1        0.0148
     23 N          15.6447   42.7006    7.5315 N.ar    1  UNL1       -0.2349
@<TRIPOS>BOND
     1    17    18    1
     2    19    23   ar
     3    19    15    1
     4    20    21   ar
     5    22    18   ar
     6     2     6   ar
     7     3     7   ar
     8     4     1   ar
     9     5     3    1
    10     8     2    1
    11     8     9    1
    12     9    10    1
    13    10    11    1
    14    11    13    1
    15    12    13    1
    16    12     8    1
    17    15     1    1
    18    18    23   ar
    19    19    20   ar
    20    21    22   ar
    21     1     6   ar
    22     2     7   ar
    23     3     4   ar
    24    15    16    1
    25    13    14    1
@<TRIPOS>MOLECULE
Molport-046-947-246 MCULE-3727816621 MCULE-7545957969 PubChem-110089778
 23 25 0 0 0
SMALL
GASTEIGER

@<TRIPOS>ATOM
      1 C          12.2089   41.0839    6.7672 C.ar    1  UNL1        0.1357
      2 C          12.4269   39.4564    8.4770 C.ar    1  UNL1        0.1411
      3 C          10.3723   39.6371    7.3218 C.ar    1  UNL1        0.0635
      4 C          10.8901   40.6724    6.5464 C.ar    1  UNL1        0.0492
      5 C           8.9751   39.1779    7.1107 C.3     1  UNL1        0.0522
      6 N          12.9454   40.4652    7.7279 N.ar    1  UNL1       -0.2159
      7 N          11.1451   39.0484    8.2700 N.ar    1  UNL1       -0.2349
      8 C          13.2729   38.8057    9.5207 C.3     1  UNL1        0.0744
      9 C          13.1482   39.5458   10.8515 C.3     1  UNL1        0.0104
     10 C          14.0928   38.9384   11.8834 C.3     1  UNL1        0.0176
     11 C          15.5122   38.9078   11.3213 C.3     1  UNL1        0.0686
     12 C          14.7371   38.7658    9.0803 C.3     1  UNL1        0.0761
     13 N          15.5497   38.1046   10.1002 N.3     1  UNL1       -0.2971
     14 H          15.1744   37.1751   10.2889 H       1  UNL1        0.1233
     15 N          12.8101   42.1427    6.0083 N.pl3   1  UNL1       -0.2833
     16 H          12.3432   42.4067    5.1827 H       1  UNL1        0.1550
     17 C          17.1027   42.4089    8.3614 C.3     1  UNL1        0.0521
     18 C          16.1015   43.0146    7.4457 C.ar    1  UNL1        0.0608
     19 C          14.0133   42.8604    6.3145 C.ar    1  UNL1        0.1328
     20 C          14.2160   44.1187    5.7412 C.ar    1  UNL1        0.0344
     21 C          15.3836   44.8264    6.0323 C.ar    1  UNL1        0.0041
     22 C          16.3356   44.2739    6.8901 C.ar    1  UNL1        0.0148
     23 N          14.9574   42.3415    7.1494 N.ar    1  UNL1       -0.2349
@<TRIPOS>BOND
     1    17    18    1
     2    19    23   ar
     3    19    15    1
     4    20    21   ar
     5    22    18   ar
     6     2     6   ar
     7     3     7   ar
     8     4     1   ar
     9     5     3    1
    10     8     2    1
    11     8     9    1
    12     9    10    1
    13    10    11    1
    14    11    13    1
    15    12    13    1
    16    12     8    1
    17    15     1    1
    18    18    23   ar
    19    19    20   ar
    20    21    22   ar
    21     1     6   ar
    22     2     7   ar
    23     3     4   ar
    24    15    16    1
    25    13    14    1
@<TRIPOS>MOLECULE
Molport-046-947-246 MCULE-3727816621 MCULE-7545957969 PubChem-110089778
 23 25 0 0 0
SMALL
GASTEIGER

@<TRIPOS>ATOM
      1 C          12.7734   42.1688    6.4551 C.ar    1  UNL1        0.1357
      2 C          14.0403   41.0052    8.0863 C.ar    1  UNL1        0.1411
      3 C          15.0201   42.8460    6.9726 C.ar    1  UNL1        0.0635
      4 C          13.8519   43.0327    6.2365 C.ar    1  UNL1        0.0492
      5 C          16.1824   43.7473    6.7628 C.3     1  UNL1        0.0522
      6 N          12.8944   41.1755    7.3754 N.ar    1  UNL1       -0.2159
      7 N          15.0954   41.8403    7.8814 N.ar    1  UNL1       -0.2349
      8 C          14.1279   39.9009    9.0870 C.3     1  UNL1        0.0744
      9 C          13.2340   40.1947   10.2906 C.3     1  UNL1        0.0104
     10 C          13.4075   39.1141   11.3528 C.3     1  UNL1        0.0176
     11 C          14.8877   38.9715   11.6995 C.3     1  UNL1        0.0686
     12 C          15.5734   39.7023    9.5458 C.3     1  UNL1        0.0761
     13 N          15.6480   38.6027   10.5064 N.3     1  UNL1       -0.2971
     14 H          15.2510   37.7586   10.0936 H       1  UNL1        0.1233
     15 N          11.5392   42.2993    5.7353 N.pl3   1  UNL1       -0.2833
     16 H          11.3754   43.1696    5.3051 H       1  UNL1        0.1550
     17 C           9.6923   38.4874    3.2669 C.3     1  UNL1        0.0521
     18 C           9.5990   39.4557    4.3901 C.ar    1  UNL1        0.0608
     19 C          10.5169   41.3072    5.5706 C.ar    1  UNL1        0.1328
     20 C           9.4522   41.2750    6.4752 C.ar    1  UNL1        0.0344
     21 C           8.4513   40.3137    6.3246 C.ar    1  UNL1        0.0041
     22 C           8.5215   39.3956    5.2759 C.ar    1  UNL1        0.0148
     23 N          10.5638   40.4003    4.5543 N.ar    1  UNL1       -0.2349
@<TRIPOS>BOND
     1    17    18    1
     2    19    23   ar
     3    19    15    1
     4    20    21   ar
     5    22    18   ar
     6     2     6   ar
     7     3     7   ar
     8     4     1   ar
     9     5     3    1
    10     8     2    1
    11     8     9    1
    12     9    10    1
    13    10    11    1
    14    11    13    1
    15    12    13    1
    16    12     8    1
    17    15     1    1
    18    18    23   ar
    19    19    20   ar
    20    21    22   ar
    21     1     6   ar
    22     2     7   ar
    23     3     4   ar
    24    15    16    1
    25    13    14    1
@<TRIPOS>MOLECULE
Molport-046-947-246 MCULE-3727816621 MCULE-7545957969 PubChem-110089778
 23 25 0 0 0
SMALL
GASTEIGER

@<TRIPOS>ATOM
      1 C          12.9687   41.2362    8.1950 C.ar    1  UNL1        0.1357
      2 C          11.0787   41.2229    9.6259 C.ar    1  UNL1        0.1411
      3 C          13.0710   40.1756   10.3488 C.ar    1  UNL1        0.0635
      4 C          13.6968   40.5231    9.1535 C.ar    1  UNL1        0.0492
      5 C          13.8183   39.4184   11.3860 C.3     1  UNL1        0.0522
      6 N          11.6765   41.5687    8.4552 N.ar    1  UNL1       -0.2159
      7 N          11.7783   40.5294   10.5651 N.ar    1  UNL1       -0.2349
      8 C           9.6574   41.6099    9.8685 C.3     1  UNL1        0.0744
      9 C           8.7909   41.2562    8.6609 C.3     1  UNL1        0.0104
     10 C           7.3629   41.7474    8.8744 C.3     1  UNL1        0.0176
     11 C           7.3797   43.2367    9.2111 C.3     1  UNL1        0.0686
     12 C           9.5496   43.1057   10.1689 C.3     1  UNL1        0.0761
     13 N           8.1566   43.4659   10.4283 N.3     1  UNL1       -0.2971
     14 H           7.7879   42.8893   11.1846 H       1  UNL1        0.1233
     15 N          13.5458   41.6286    6.9415 N.pl3   1  UNL1       -0.2833
     16 H          13.3269   41.0642    6.1651 H       1  UNL1        0.1550
     17 C          17.8617   43.8763    7.5383 C.3     1  UNL1        0.0521
     18 C          16.4912   43.8611    6.9642 C.ar    1  UNL1        0.0608
     19 C          14.4051   42.7488    6.6900 C.ar    1  UNL1        0.1328
     20 C          13.9303   43.8045    5.9069 C.ar    1  UNL1        0.0344
     21 C          14.7581   44.9001    5.6557 C.ar    1  UNL1        0.0041
     22 C          16.0484   44.9325    6.1862 C.ar    1  UNL1        0.0148
     23 N          15.6690   42.8030    7.1974 N.ar    1  UNL1       -0.2349
@<TRIPOS>BOND
     1    17    18    1
     2    19    23   ar
     3    19    15    1
     4    20    21   ar
     5    22    18   ar
     6     2     6   ar
     7     3     7   ar
     8     4     1   ar
     9     5     3    1
    10     8     2    1
    11     8     9    1
    12     9    10    1
    13    10    11    1
    14    11    13    1
    15    12    13    1
    16    12     8    1
    17    15     1    1
    18    18    23   ar
    19    19    20   ar
    20    21    22   ar
    21     1     6   ar
    22     2     7   ar
    23     3     4   ar
    24    15    16    1
    25    13    14    1
@<TRIPOS>MOLECULE
Molport-046-947-246 MCULE-3727816621 MCULE-7545957969 PubChem-110089778
 23 25 0 0 0
SMALL
GASTEIGER

@<TRIPOS>ATOM
      1 C          11.8312   41.3001    6.9401 C.ar    1  UNL1        0.1357
      2 C          11.5936   39.6321    8.6077 C.ar    1  UNL1        0.1411
      3 C           9.7127   40.9352    8.0136 C.ar    1  UNL1        0.0635
      4 C          10.4806   41.6347    7.0851 C.ar    1  UNL1        0.0492
      5 C           8.2754   41.2676    8.1904 C.3     1  UNL1        0.0522
      6 N          12.3548   40.3062    7.7056 N.ar    1  UNL1       -0.2159
      7 N          10.2785   39.9497    8.7564 N.ar    1  UNL1       -0.2349
      8 C          12.2112   38.5475    9.4267 C.3     1  UNL1        0.0744
      9 C          13.4971   38.0459    8.7717 C.3     1  UNL1        0.0104
     10 C          14.0660   36.8699    9.5587 C.3     1  UNL1        0.0176
     11 C          12.9925   35.7961    9.7204 C.3     1  UNL1        0.0686
     12 C          11.2319   37.3871    9.6114 C.3     1  UNL1        0.0761
     13 N          11.8405   36.3437   10.4350 N.3     1  UNL1       -0.2971
     14 H          12.1449   36.7414   11.3235 H       1  UNL1        0.1233
     15 N          12.6838   41.9761    6.0049 N.pl3   1  UNL1       -0.2833
     16 H          12.4297   41.9092    5.0561 H       1  UNL1        0.1550
     17 C          16.9904   42.4080    8.3074 C.3     1  UNL1        0.0521
     18 C          15.9578   42.9728    7.4004 C.ar    1  UNL1        0.0608
     19 C          13.8638   42.7380    6.2940 C.ar    1  UNL1        0.1328
     20 C          14.0148   43.9999    5.7125 C.ar    1  UNL1        0.0344
     21 C          15.1594   44.7504    5.9869 C.ar    1  UNL1        0.0041
     22 C          16.1402   44.2369    6.8363 C.ar    1  UNL1        0.0148
     23 N          14.8353   42.2575    7.1204 N.ar    1  UNL1       -0.2349
@<TRIPOS>BOND
     1    17    18    1
     2    19    23   ar
     3    19    15    1
     4    20    21   ar
     5    22    18   ar
     6     2     6   ar
     7     3     7   ar
     8     4     1   ar
     9     5     3    1
    10     8     2    1
    11     8     9    1
    12     9    10    1
    13    10    11    1
    14    11    13    1
    15    12    13    1
    16    12     8    1
    17    15     1    1
    18    18    23   ar
    19    19    20   ar
    20    21    22   ar
    21     1     6   ar
    22     2     7   ar
    23     3     4   ar
    24    15    16    1
    25    13    14    1
@<TRIPOS>MOLECULE
Molport-046-947-246 MCULE-3727816621 MCULE-7545957969 PubChem-110089778
 23 25 0 0 0
SMALL
GASTEIGER

@<TRIPOS>ATOM
      1 C          13.2732   40.9960    8.5089 C.ar    1  UNL1        0.1357
      2 C          14.1233   39.8925   10.4271 C.ar    1  UNL1        0.1411
      3 C          11.8529   40.5504   10.3953 C.ar    1  UNL1        0.0635
      4 C          12.0157   41.0792    9.1166 C.ar    1  UNL1        0.0492
      5 C          10.5295   40.6236   11.0666 C.3     1  UNL1        0.0522
      6 N          14.2968   40.4042    9.1798 N.ar    1  UNL1       -0.2159
      7 N          12.9040   39.9681   11.0270 N.ar    1  UNL1       -0.2349
      8 C          15.2761   39.2511   11.1258 C.3     1  UNL1        0.0744
      9 C          16.5847   39.5650   10.4025 C.3     1  UNL1        0.0104
     10 C          17.7428   38.8229   11.0614 C.3     1  UNL1        0.0176
     11 C          17.4178   37.3329   11.1371 C.3     1  UNL1        0.0686
     12 C          15.0783   37.7370   11.2143 C.3     1  UNL1        0.0761
     13 N          16.2019   37.1250   11.9218 N.3     1  UNL1       -0.2971
     14 H          16.3070   37.5582   12.8392 H       1  UNL1        0.1233
     15 N          13.5164   41.5180    7.1949 N.pl3   1  UNL1       -0.2833
     16 H          13.0495   41.0683    6.4539 H       1  UNL1        0.1550
     17 C          17.7661   43.9198    7.6493 C.3     1  UNL1        0.0521
     18 C          16.4159   43.8046    7.0396 C.ar    1  UNL1        0.0608
     19 C          14.3619   42.6197    6.8372 C.ar    1  UNL1        0.1328
     20 C          13.8929   43.5632    5.9190 C.ar    1  UNL1        0.0344
     21 C          14.7074   44.6399    5.5635 C.ar    1  UNL1        0.0041
     22 C          15.9785   44.7651    6.1255 C.ar    1  UNL1        0.0148
     23 N          15.6070   42.7632    7.3727 N.ar    1  UNL1       -0.2349
@<TRIPOS>BOND
     1    17    18    1
     2    19    23   ar
     3    19    15    1
     4    20    21   ar
     5    22    18   ar
     6     2     6   ar
     7     3     7   ar
     8     4     1   ar
     9     5     3    1
    10     8     2    1
    11     8     9    1
    12     9    10    1
    13    10    11    1
    14    11    13    1
    15    12    13    1
    16    12     8    1
    17    15     1    1
    18    18    23   ar
    19    19    20   ar
    20    21    22   ar
    21     1     6   ar
    22     2     7   ar
    23     3     4   ar
    24    15    16    1
    25    13    14    1
@<TRIPOS>MOLECULE
Molport-046-947-246 MCULE-3727816621 MCULE-7545957969 PubChem-110089778
 23 25 0 0 0
SMALL
GASTEIGER

@<TRIPOS>ATOM
      1 C           9.5117   41.3869   10.2177 C.ar    1  UNL1        0.1357
      2 C           7.2219   41.6854   10.7539 C.ar    1  UNL1        0.1411
      3 C           8.7695   41.3138   12.5019 C.ar    1  UNL1        0.0635
      4 C           9.8078   41.2333   11.5764 C.ar    1  UNL1        0.0492
      5 C           9.0526   41.1548   13.9518 C.3     1  UNL1        0.0522
      6 N           8.2249   41.6093    9.8397 N.ar    1  UNL1       -0.2159
      7 N           7.4994   41.5376   12.0782 N.ar    1  UNL1       -0.2349
      8 C           5.8236   41.9316   10.2928 C.3     1  UNL1        0.0744
      9 C           4.8349   41.7170   11.4376 C.3     1  UNL1        0.0104
     10 C           3.4034   41.8692   10.9339 C.3     1  UNL1        0.0176
     11 C           3.1807   40.9436    9.7401 C.3     1  UNL1        0.0686
     12 C           5.4728   41.0138    9.1206 C.3     1  UNL1        0.0761
     13 N           4.1103   41.2824    8.6637 N.3     1  UNL1       -0.2971
     14 H           4.0160   42.2700    8.4267 H       1  UNL1        0.1233
     15 N          10.5279   41.3165    9.2074 N.pl3   1  UNL1       -0.2833
     16 H          10.2514   41.5567    8.2935 H       1  UNL1        0.1550
     17 C          13.9938   38.9842   11.7731 C.3     1  UNL1        0.0521
     18 C          13.6018   39.8124   10.6033 C.ar    1  UNL1        0.0608
     19 C          11.9003   40.9364    9.3763 C.ar    1  UNL1        0.1328
     20 C          12.8407   41.3563    8.4316 C.ar    1  UNL1        0.0344
     21 C          14.1795   40.9922    8.5860 C.ar    1  UNL1        0.0041
     22 C          14.5670   40.2148    9.6782 C.ar    1  UNL1        0.0148
     23 N          12.3026   40.1778   10.4347 N.ar    1  UNL1       -0.2349
@<TRIPOS>BOND
     1    17    18    1
     2    19    23   ar
     3    19    15    1
     4    20    21   ar
     5    22    18   ar
     6     2     6   ar
     7     3     7   ar
     8     4     1   ar
     9     5     3    1
    10     8     2    1
    11     8     9    1
    12     9    10    1
    13    10    11    1
    14    11    13    1
    15    12    13    1
    16    12     8    1
    17    15     1    1
    18    18    23   ar
    19    19    20   ar
    20    21    22   ar
    21     1     6   ar
    22     2     7   ar
    23     3     4   ar
    24    15    16    1
    25    13    14    1
@<TRIPOS>MOLECULE
Molport-046-947-246 MCULE-3727816621 MCULE-7545957969 PubChem-110089778
 23 25 0 0 0
SMALL
GASTEIGER

@<TRIPOS>ATOM
      1 C          11.5613   41.0496    6.6126 C.ar    1  UNL1        0.1357
      2 C           9.2369   41.5067    6.7023 C.ar    1  UNL1        0.1411
      3 C          10.0916   40.2661    4.8806 C.ar    1  UNL1        0.0635
      4 C          11.3772   40.3601    5.4093 C.ar    1  UNL1        0.0492
      5 C           9.8644   39.5402    3.6043 C.3     1  UNL1        0.0522
      6 N          10.4856   41.6064    7.2299 N.ar    1  UNL1       -0.2159
      7 N           9.0470   40.8379    5.5323 N.ar    1  UNL1       -0.2349
      8 C           8.0849   42.1337    7.4155 C.3     1  UNL1        0.0744
      9 C           7.3114   43.0586    6.4771 C.3     1  UNL1        0.0104
     10 C           6.2001   43.7734    7.2389 C.3     1  UNL1        0.0176
     11 C           6.7887   44.4784    8.4588 C.3     1  UNL1        0.0686
     12 C           8.5683   42.9153    8.6381 C.3     1  UNL1        0.0761
     13 N           7.4287   43.5031    9.3402 N.3     1  UNL1       -0.2971
     14 H           6.7614   42.7715    9.5847 H       1  UNL1        0.1233
     15 N          12.8550   41.1878    7.2173 N.pl3   1  UNL1       -0.2833
     16 H          13.0906   40.5191    7.9003 H       1  UNL1        0.1550
     17 C          17.3476   43.0160    7.9306 C.3     1  UNL1        0.0521
     18 C          16.0194   43.0966    7.2693 C.ar    1  UNL1        0.0608
     19 C          13.8442   42.1885    6.9407 C.ar    1  UNL1        0.1328
     20 C          13.5335   43.2206    6.0511 C.ar    1  UNL1        0.0344
     21 C          14.4887   44.2002    5.7744 C.ar    1  UNL1        0.0041
     22 C          15.7418   44.1414    6.3858 C.ar    1  UNL1        0.0148
     23 N          15.0748   42.1521    7.5255 N.ar    1  UNL1       -0.2349
@<TRIPOS>BOND
     1    17    18    1
     2    19    23   ar
     3    19    15    1
     4    20    21   ar
     5    22    18   ar
     6     2     6   ar
     7     3     7   ar
     8     4     1   ar
     9     5     3    1
    10     8     2    1
    11     8     9    1
    12     9    10    1
    13    10    11    1
    14    11    13    1
    15    12    13    1
    16    12     8    1
    17    15     1    1
    18    18    23   ar
    19    19    20   ar
    20    21    22   ar
    21     1     6   ar
    22     2     7   ar
    23     3     4   ar
    24    15    16    1
    25    13    14    1
@<TRIPOS>MOLECULE
Molport-046-947-246 MCULE-3727816621 MCULE-7545957969 PubChem-110089778
 23 25 0 0 0
SMALL
GASTEIGER

@<TRIPOS>ATOM
      1 C          10.8012   40.6199    6.5841 C.ar    1  UNL1        0.1357
      2 C           8.5054   41.0065    6.1374 C.ar    1  UNL1        0.1411
      3 C           9.7693   39.7188    4.6100 C.ar    1  UNL1        0.0635
      4 C          10.9034   39.8754    5.4040 C.ar    1  UNL1        0.0492
      5 C           9.8465   38.9337    3.3510 C.3     1  UNL1        0.0522
      6 N           9.6036   41.1675    6.9219 N.ar    1  UNL1       -0.2159
      7 N           8.5941   40.2839    4.9874 N.ar    1  UNL1       -0.2349
      8 C           7.2107   41.6258    6.5483 C.3     1  UNL1        0.0744
      9 C           7.3913   43.1186    6.8187 C.3     1  UNL1        0.0104
     10 C           6.0899   43.7221    7.3366 C.3     1  UNL1        0.0176
     11 C           5.6038   42.9269    8.5462 C.3     1  UNL1        0.0686
     12 C           6.6526   40.9332    7.7926 C.3     1  UNL1        0.0761
     13 N           5.3737   41.5331    8.1693 N.3     1  UNL1       -0.2971
     14 H           4.7296   41.4928    7.3794 H       1  UNL1        0.1233
     15 N          11.9254   40.8240    7.4518 N.pl3   1  UNL1       -0.2833
     16 H          11.8948   40.3622    8.3207 H       1  UNL1        0.1550
     17 C          16.5922   41.9500    8.4457 C.3     1  UNL1        0.0521
     18 C          15.3532   42.1900    7.6613 C.ar    1  UNL1        0.0608
     19 C          13.0885   41.6236    7.1983 C.ar    1  UNL1        0.1328
     20 C          13.0282   42.6143    6.2145 C.ar    1  UNL1        0.0344
     21 C          14.1543   43.3988    5.9592 C.ar    1  UNL1        0.0041
     22 C          15.3272   43.1883    6.6856 C.ar    1  UNL1        0.0148
     23 N          14.2451   41.4366    7.8947 N.ar    1  UNL1       -0.2349
@<TRIPOS>BOND
     1    17    18    1
     2    19    23   ar
     3    19    15    1
     4    20    21   ar
     5    22    18   ar
     6     2     6   ar
     7     3     7   ar
     8     4     1   ar
     9     5     3    1
    10     8     2    1
    11     8     9    1
    12     9    10    1
    13    10    11    1
    14    11    13    1
    15    12    13    1
    16    12     8    1
    17    15     1    1
    18    18    23   ar
    19    19    20   ar
    20    21    22   ar
    21     1     6   ar
    22     2     7   ar
    23     3     4   ar
    24    15    16    1
    25    13    14    1
