@<TRIPOS>MOLECULE
MolPort-020-292-989 MCULE-3525130051 PubChem-110265456
 28 31 0 0 0
SMALL
GASTEIGER

@<TRIPOS>ATOM
      1 C          13.9308   38.7408   11.8365 C.3     1  UNL1        0.0178
      2 C          12.9681   39.5398   10.9732 C.3     1  UNL1        0.0087
      3 C          13.2190   39.2182    9.5056 C.3     1  UNL1        0.0563
      4 C          14.6826   39.5015    9.1441 C.3     1  UNL1        0.0783
      5 C          15.3749   39.0437   11.4229 C.3     1  UNL1        0.0724
      6 N          15.6250   38.7659   10.0013 N.3     1  UNL1       -0.2686
      7 C          12.2901   39.9840    8.6187 C.ar    1  UNL1        0.0614
      8 C          12.0211   41.5708    6.8609 C.ar    1  UNL1        0.1339
      9 C          10.6281   41.4420    6.9436 C.ar    1  UNL1        0.0345
     10 C          10.0700   40.5708    7.8792 C.ar    1  UNL1        0.0041
     11 C          10.9006   39.8357    8.7238 C.ar    1  UNL1        0.0149
     12 N          12.8086   40.8412    7.6975 N.ar    1  UNL1       -0.2348
     13 N          12.6464   42.4526    5.9173 N.pl3   1  UNL1       -0.2680
     14 H          12.1955   42.5496    5.0475 H       1  UNL1        0.1565
     15 C          13.8519   43.2091    6.0942 C.ar    1  UNL1        0.2218
     16 C          16.0446   43.3365    6.9760 C.ar    1  UNL1        0.1034
     17 C          16.1908   44.6233    6.4618 C.ar    1  UNL1        0.0414
     18 C          15.1244   45.1776    5.7566 C.ar    1  UNL1        0.1034
     19 N          14.8844   42.6560    6.7843 N.ar    1  UNL1       -0.2120
     20 N          13.9803   44.4656    5.5859 N.ar    1  UNL1       -0.2120
     21 C          15.5266   37.3282    9.7514 C.3     1  UNL1        0.1000
     22 C          16.8609   36.7661    9.3746 C.ar    1  UNL1        0.0045
     23 C          17.9887   37.1931   10.0841 C.ar    1  UNL1       -0.0021
     24 C          19.2545   36.6963    9.7631 C.ar    1  UNL1       -0.0002
     25 C          19.3995   35.7719    8.7262 C.ar    1  UNL1        0.0008
     26 C          18.2791   35.3464    8.0079 C.ar    1  UNL1        0.0111
     27 C          17.0088   35.8393    8.3237 C.ar    1  UNL1        0.0550
     28 CL         15.6362   35.2884    7.3749 Cl      1  UNL1       -0.0825
@<TRIPOS>BOND
     1     1     2    1
     2     2     3    1
     3     3     4    1
     4     3     7    1
     5     4     6    1
     6     5     6    1
     7     5     1    1
     8    21     6    1
     9    21    22    1
    10    23    24   ar
    11    25    26   ar
    12    27    28    1
    13    27    22   ar
    14     8    12   ar
    15     8    13    1
    16     9    10   ar
    17    11     7   ar
    18    15    20   ar
    19    16    19   ar
    20    17    18   ar
    21    13    15    1
    22    22    23   ar
    23    24    25   ar
    24    26    27   ar
    25     7    12   ar
    26     8     9   ar
    27    10    11   ar
    28    15    19   ar
    29    16    17   ar
    30    18    20   ar
    31    13    14    1
@<TRIPOS>MOLECULE
MolPort-020-292-989 MCULE-3525130051 PubChem-110265456
 28 31 0 0 0
SMALL
GASTEIGER

@<TRIPOS>ATOM
      1 C           9.4402   43.8675    9.8681 C.3     1  UNL1        0.0178
      2 C          10.8174   43.2265    9.9210 C.3     1  UNL1        0.0087
      3 C          10.6693   41.7106    9.9373 C.3     1  UNL1        0.0563
      4 C           9.7901   41.2769   11.1170 C.3     1  UNL1        0.0783
      5 C           8.5967   43.3873   11.0538 C.3     1  UNL1        0.0724
      6 N           8.4689   41.9236   11.0998 N.3     1  UNL1       -0.2686
      7 C          12.0041   41.0383    9.9881 C.ar    1  UNL1        0.0614
      8 C          14.1854   40.8004    9.0578 C.ar    1  UNL1        0.1339
      9 C          14.5002   39.8290   10.0177 C.ar    1  UNL1        0.0345
     10 C          13.5476   39.4652   10.9695 C.ar    1  UNL1        0.0041
     11 C          12.2913   40.0697   10.9592 C.ar    1  UNL1        0.0149
     12 N          12.9514   41.3745    9.0707 N.ar    1  UNL1       -0.2348
     13 N          15.1279   41.2104    8.0566 N.pl3   1  UNL1       -0.2680
     14 H          15.8602   40.5811    7.8646 H       1  UNL1        0.1565
     15 C          15.1268   42.4307    7.3030 C.ar    1  UNL1        0.2218
     16 C          14.0460   43.8326    5.7319 C.ar    1  UNL1        0.1034
     17 C          15.0785   44.7630    5.8321 C.ar    1  UNL1        0.0414
     18 C          16.1366   44.4847    6.6951 C.ar    1  UNL1        0.1034
     19 N          14.0881   42.6894    6.4649 N.ar    1  UNL1       -0.2120
     20 N          16.1427   43.3306    7.4113 N.ar    1  UNL1       -0.2120
     21 C           7.6872   41.4572    9.9550 C.3     1  UNL1        0.1000
     22 C           6.2414   41.7996   10.1293 C.ar    1  UNL1        0.0045
     23 C           5.5581   41.2680   11.2286 C.ar    1  UNL1       -0.0021
     24 C           4.2062   41.5593   11.4278 C.ar    1  UNL1       -0.0002
     25 C           3.5287   42.3814   10.5246 C.ar    1  UNL1        0.0008
     26 C           4.2020   42.9100    9.4202 C.ar    1  UNL1        0.0111
     27 C           5.5553   42.6228    9.2145 C.ar    1  UNL1        0.0550
     28 CL          6.3490   43.2949    7.7980 Cl      1  UNL1       -0.0825
@<TRIPOS>BOND
     1     1     2    1
     2     2     3    1
     3     3     4    1
     4     3     7    1
     5     4     6    1
     6     5     6    1
     7     5     1    1
     8    21     6    1
     9    21    22    1
    10    23    24   ar
    11    25    26   ar
    12    27    28    1
    13    27    22   ar
    14     8    12   ar
    15     8    13    1
    16     9    10   ar
    17    11     7   ar
    18    15    20   ar
    19    16    19   ar
    20    17    18   ar
    21    13    15    1
    22    22    23   ar
    23    24    25   ar
    24    26    27   ar
    25     7    12   ar
    26     8     9   ar
    27    10    11   ar
    28    15    19   ar
    29    16    17   ar
    30    18    20   ar
    31    13    14    1
@<TRIPOS>MOLECULE
MolPort-020-292-989 MCULE-3525130051 PubChem-110265456
 28 31 0 0 0
SMALL
GASTEIGER

@<TRIPOS>ATOM
      1 C           9.3537   44.0047    9.8921 C.3     1  UNL1        0.0178
      2 C          10.7054   43.3274   10.0494 C.3     1  UNL1        0.0087
      3 C          10.5566   41.8346    9.7854 C.3     1  UNL1        0.0563
      4 C           9.5021   41.2333   10.7232 C.3     1  UNL1        0.0783
      5 C           8.3336   43.3556   10.8335 C.3     1  UNL1        0.0724
      6 N           8.2002   41.9088   10.6104 N.3     1  UNL1       -0.2686
      7 C          11.8666   41.1279    9.9287 C.ar    1  UNL1        0.0614
      8 C          14.0973   40.8248    9.1460 C.ar    1  UNL1        0.1339
      9 C          14.3221   39.8537   10.1310 C.ar    1  UNL1        0.0345
     10 C          13.2995   39.5231   11.0203 C.ar    1  UNL1        0.0041
     11 C          12.0633   40.1603   10.9231 C.ar    1  UNL1        0.0149
     12 N          12.8810   41.4313    9.0736 N.ar    1  UNL1       -0.2348
     13 N          15.1143   41.2015    8.2065 N.pl3   1  UNL1       -0.2680
     14 H          15.8747   40.5827    8.1169 H       1  UNL1        0.1565
     15 C          15.1515   42.3749    7.3827 C.ar    1  UNL1        0.2218
     16 C          16.2211   44.4073    6.8108 C.ar    1  UNL1        0.1034
     17 C          15.2666   44.6473    5.8244 C.ar    1  UNL1        0.0414
     18 C          14.2519   43.7093    5.6454 C.ar    1  UNL1        0.1034
     19 N          16.1472   43.2818    7.5682 N.ar    1  UNL1       -0.2120
     20 N          14.2118   42.5961    6.4226 N.ar    1  UNL1       -0.2120
     21 C           7.6092   41.6615    9.2956 C.3     1  UNL1        0.1000
     22 C           6.3018   42.3764    9.1625 C.ar    1  UNL1        0.0045
     23 C           6.1873   43.3825    8.1969 C.ar    1  UNL1       -0.0021
     24 C           4.9855   44.0779    8.0409 C.ar    1  UNL1       -0.0002
     25 C           3.8918   43.7730    8.8542 C.ar    1  UNL1        0.0008
     26 C           4.0004   42.7749    9.8260 C.ar    1  UNL1        0.0111
     27 C           5.2003   42.0745    9.9877 C.ar    1  UNL1        0.0550
     28 CL          5.2907   40.8443   11.2392 Cl      1  UNL1       -0.0825
@<TRIPOS>BOND
     1     1     2    1
     2     2     3    1
     3     3     4    1
     4     3     7    1
     5     4     6    1
     6     5     6    1
     7     5     1    1
     8    21     6    1
     9    21    22    1
    10    23    24   ar
    11    25    26   ar
    12    27    28    1
    13    27    22   ar
    14     8    12   ar
    15     8    13    1
    16     9    10   ar
    17    11     7   ar
    18    15    20   ar
    19    16    19   ar
    20    17    18   ar
    21    13    15    1
    22    22    23   ar
    23    24    25   ar
    24    26    27   ar
    25     7    12   ar
    26     8     9   ar
    27    10    11   ar
    28    15    19   ar
    29    16    17   ar
    30    18    20   ar
    31    13    14    1
@<TRIPOS>MOLECULE
MolPort-020-292-989 MCULE-3525130051 PubChem-110265456
 28 31 0 0 0
SMALL
GASTEIGER

@<TRIPOS>ATOM
      1 C           9.3102   41.7409   11.1879 C.3     1  UNL1        0.0178
      2 C          10.6271   41.0395   11.4787 C.3     1  UNL1        0.0087
      3 C          11.4836   41.0296   10.2192 C.3     1  UNL1        0.0563
      4 C          10.7222   40.3634    9.0661 C.3     1  UNL1        0.0783
      5 C           8.6003   41.0511   10.0182 C.3     1  UNL1        0.0724
      6 N           9.4262   41.0077    8.8029 N.3     1  UNL1       -0.2686
      7 C          12.7923   40.3482   10.4616 C.ar    1  UNL1        0.0614
      8 C          15.0904   40.1151    9.8745 C.ar    1  UNL1        0.1339
      9 C          15.2502   39.1230   10.8513 C.ar    1  UNL1        0.0345
     10 C          14.1609   38.7464   11.6370 C.ar    1  UNL1        0.0041
     11 C          12.9232   39.3587   11.4454 C.ar    1  UNL1        0.0149
     12 N          13.8710   40.6965    9.7085 N.ar    1  UNL1       -0.2348
     13 N          16.1775   40.5390    9.0393 N.pl3   1  UNL1       -0.2680
     14 H          16.8722   39.8664    8.8545 H       1  UNL1        0.1565
     15 C          16.3694   41.8289    8.4426 C.ar    1  UNL1        0.2218
     16 C          15.6291   43.4763    6.9129 C.ar    1  UNL1        0.1034
     17 C          16.6952   44.3016    7.2654 C.ar    1  UNL1        0.0414
     18 C          17.5928   43.8453    8.2285 C.ar    1  UNL1        0.1034
     19 N          15.4858   42.2616    7.5042 N.ar    1  UNL1       -0.2120
     20 N          17.4159   42.6244    8.7971 N.ar    1  UNL1       -0.2120
     21 C           9.6248   42.3625    8.2889 C.3     1  UNL1        0.1000
     22 C           8.3147   42.9839    7.9207 C.ar    1  UNL1        0.0045
     23 C           7.6133   42.4627    6.8279 C.ar    1  UNL1       -0.0021
     24 C           6.3875   43.0149    6.4475 C.ar    1  UNL1       -0.0002
     25 C           5.8584   44.0958    7.1564 C.ar    1  UNL1        0.0008
     26 C           6.5565   44.6268    8.2441 C.ar    1  UNL1        0.0111
     27 C           7.7840   44.0790    8.6308 C.ar    1  UNL1        0.0550
     28 CL          8.6315   44.7984    9.9918 Cl      1  UNL1       -0.0825
@<TRIPOS>BOND
     1     1     2    1
     2     2     3    1
     3     3     4    1
     4     3     7    1
     5     4     6    1
     6     5     6    1
     7     5     1    1
     8    21     6    1
     9    21    22    1
    10    23    24   ar
    11    25    26   ar
    12    27    28    1
    13    27    22   ar
    14     8    12   ar
    15     8    13    1
    16     9    10   ar
    17    11     7   ar
    18    15    20   ar
    19    16    19   ar
    20    17    18   ar
    21    13    15    1
    22    22    23   ar
    23    24    25   ar
    24    26    27   ar
    25     7    12   ar
    26     8     9   ar
    27    10    11   ar
    28    15    19   ar
    29    16    17   ar
    30    18    20   ar
    31    13    14    1
@<TRIPOS>MOLECULE
MolPort-020-292-989 MCULE-3525130051 PubChem-110265456
 28 31 0 0 0
SMALL
GASTEIGER

@<TRIPOS>ATOM
      1 C           9.8777   41.7456    5.8842 C.3     1  UNL1        0.0178
      2 C           9.3827   41.5597    7.3093 C.3     1  UNL1        0.0087
      3 C          10.5432   41.7528    8.2768 C.3     1  UNL1        0.0563
      4 C          11.6837   40.7854    7.9359 C.3     1  UNL1        0.0783
      5 C          11.0270   40.7723    5.6013 C.3     1  UNL1        0.0724
      6 N          12.1430   40.9268    6.5455 N.3     1  UNL1       -0.2686
      7 C          10.0990   41.5794    9.6941 C.ar    1  UNL1        0.0614
      8 C           8.3616   41.8010   11.3104 C.ar    1  UNL1        0.1339
      9 C           9.2073   41.2911   12.3047 C.ar    1  UNL1        0.0345
     10 C          10.5130   40.9243   11.9787 C.ar    1  UNL1        0.0041
     11 C          10.9666   41.0673   10.6682 C.ar    1  UNL1        0.0149
     12 N           8.8300   41.9300   10.0390 N.ar    1  UNL1       -0.2348
     13 N           7.0105   42.1936   11.5921 N.pl3   1  UNL1       -0.2680
     14 H           6.8963   42.9270   12.2388 H       1  UNL1        0.1565
     15 C           5.8071   41.6415   11.0409 C.ar    1  UNL1        0.2218
     16 C           3.8788   40.3019   11.3390 C.ar    1  UNL1        0.1034
     17 C           3.4835   40.5557   10.0272 C.ar    1  UNL1        0.0414
     18 C           4.2927   41.3727    9.2402 C.ar    1  UNL1        0.1034
     19 N           5.0270   40.8461   11.8201 N.ar    1  UNL1       -0.2120
     20 N           5.4335   41.8984    9.7571 N.ar    1  UNL1       -0.2120
     21 C          12.7832   42.2271    6.3493 C.3     1  UNL1        0.1000
     22 C          14.1309   42.2543    6.9982 C.ar    1  UNL1        0.0045
     23 C          14.3996   41.3326    8.0159 C.ar    1  UNL1       -0.0021
     24 C          15.6440   41.3251    8.6512 C.ar    1  UNL1       -0.0002
     25 C          16.6259   42.2440    8.2741 C.ar    1  UNL1        0.0008
     26 C          16.3627   43.1728    7.2640 C.ar    1  UNL1        0.0111
     27 C          15.1193   43.1860    6.6235 C.ar    1  UNL1        0.0550
     28 CL         14.8321   44.3889    5.3751 Cl      1  UNL1       -0.0825
@<TRIPOS>BOND
     1     1     2    1
     2     2     3    1
     3     3     4    1
     4     3     7    1
     5     4     6    1
     6     5     6    1
     7     5     1    1
     8    21     6    1
     9    21    22    1
    10    23    24   ar
    11    25    26   ar
    12    27    28    1
    13    27    22   ar
    14     8    12   ar
    15     8    13    1
    16     9    10   ar
    17    11     7   ar
    18    15    20   ar
    19    16    19   ar
    20    17    18   ar
    21    13    15    1
    22    22    23   ar
    23    24    25   ar
    24    26    27   ar
    25     7    12   ar
    26     8     9   ar
    27    10    11   ar
    28    15    19   ar
    29    16    17   ar
    30    18    20   ar
    31    13    14    1
@<TRIPOS>MOLECULE
MolPort-020-292-989 MCULE-3525130051 PubChem-110265456
 28 31 0 0 0
SMALL
GASTEIGER

@<TRIPOS>ATOM
      1 C          10.9351   37.8376    9.2160 C.3     1  UNL1        0.0178
      2 C          12.4194   37.8390    9.5439 C.3     1  UNL1        0.0087
      3 C          12.8097   39.1961   10.1149 C.3     1  UNL1        0.0563
      4 C          12.4398   40.3117    9.1292 C.3     1  UNL1        0.0783
      5 C          10.6152   38.9801    8.2463 C.3     1  UNL1        0.0724
      6 N          11.0131   40.2943    8.7713 N.3     1  UNL1       -0.2686
      7 C          14.2655   39.2409   10.4533 C.ar    1  UNL1        0.0614
      8 C          16.4291   40.1139    9.9663 C.ar    1  UNL1        0.1339
      9 C          16.9779   39.3697   11.0192 C.ar    1  UNL1        0.0345
     10 C          16.1513   38.5541   11.7920 C.ar    1  UNL1        0.0041
     11 C          14.7873   38.4854   11.5119 C.ar    1  UNL1        0.0149
     12 N          15.0942   40.0283    9.7147 N.ar    1  UNL1       -0.2348
     13 N          17.2344   40.9676    9.1406 N.pl3   1  UNL1       -0.2680
     14 H          18.1975   40.7651    9.1145 H       1  UNL1        0.1565
     15 C          16.7992   42.0814    8.3490 C.ar    1  UNL1        0.2218
     16 C          17.2633   44.2174    7.4412 C.ar    1  UNL1        0.1034
     17 C          16.0084   44.2474    6.8361 C.ar    1  UNL1        0.0414
     18 C          15.1629   43.1545    7.0151 C.ar    1  UNL1        0.1034
     19 N          17.6344   43.1411    8.1827 N.ar    1  UNL1       -0.2120
     20 N          15.5700   42.0967    7.7637 N.ar    1  UNL1       -0.2120
     21 C          10.1915   40.6346    9.9325 C.3     1  UNL1        0.1000
     22 C           9.5474   41.9723    9.7486 C.ar    1  UNL1        0.0045
     23 C          10.0904   43.0720   10.4221 C.ar    1  UNL1       -0.0021
     24 C           9.5184   44.3389   10.2813 C.ar    1  UNL1       -0.0002
     25 C           8.3959   44.5118    9.4684 C.ar    1  UNL1        0.0008
     26 C           7.8431   43.4172    8.7986 C.ar    1  UNL1        0.0111
     27 C           8.4105   42.1460    8.9346 C.ar    1  UNL1        0.0550
     28 CL          7.6632   40.7995    8.0882 Cl      1  UNL1       -0.0825
@<TRIPOS>BOND
     1     1     2    1
     2     2     3    1
     3     3     4    1
     4     3     7    1
     5     4     6    1
     6     5     6    1
     7     5     1    1
     8    21     6    1
     9    21    22    1
    10    23    24   ar
    11    25    26   ar
    12    27    28    1
    13    27    22   ar
    14     8    12   ar
    15     8    13    1
    16     9    10   ar
    17    11     7   ar
    18    15    20   ar
    19    16    19   ar
    20    17    18   ar
    21    13    15    1
    22    22    23   ar
    23    24    25   ar
    24    26    27   ar
    25     7    12   ar
    26     8     9   ar
    27    10    11   ar
    28    15    19   ar
    29    16    17   ar
    30    18    20   ar
    31    13    14    1
@<TRIPOS>MOLECULE
MolPort-020-292-989 MCULE-3525130051 PubChem-110265456
 28 31 0 0 0
SMALL
GASTEIGER

@<TRIPOS>ATOM
      1 C          10.8418   40.0071   10.6564 C.3     1  UNL1        0.0178
      2 C          12.3150   39.8870   11.0113 C.3     1  UNL1        0.0087
      3 C          13.1473   39.9313    9.7364 C.3     1  UNL1        0.0563
      4 C          12.6985   38.8259    8.7721 C.3     1  UNL1        0.0783
      5 C          10.4497   38.8951    9.6779 C.3     1  UNL1        0.0724
      6 N          11.2644   38.9066    8.4543 N.3     1  UNL1       -0.2686
      7 C          14.6070   39.8170   10.0404 C.ar    1  UNL1        0.0614
      8 C          16.8297   40.5504    9.5914 C.ar    1  UNL1        0.1339
      9 C          17.3292   39.6557   10.5473 C.ar    1  UNL1        0.0345
     10 C          16.4479   38.8361   11.2524 C.ar    1  UNL1        0.0041
     11 C          15.0786   38.9128   11.0015 C.ar    1  UNL1        0.0149
     12 N          15.4885   40.6049    9.3664 N.ar    1  UNL1       -0.2348
     13 N          17.6923   41.4151    8.8383 N.pl3   1  UNL1       -0.2680
     14 H          18.6597   41.2777    8.9594 H       1  UNL1        0.1565
     15 C          17.3089   42.4563    7.9297 C.ar    1  UNL1        0.2218
     16 C          15.5889   43.5716    6.7465 C.ar    1  UNL1        0.1034
     17 C          16.5211   44.4430    6.1866 C.ar    1  UNL1        0.0414
     18 C          17.8621   44.2849    6.5302 C.ar    1  UNL1        0.1034
     19 N          15.9969   42.5992    7.6032 N.ar    1  UNL1       -0.2120
     20 N          18.2310   43.3005    7.3904 N.ar    1  UNL1       -0.2120
     21 C          10.9804   40.1144    7.6800 C.3     1  UNL1        0.1000
     22 C           9.5332   40.1725    7.3057 C.ar    1  UNL1        0.0045
     23 C           9.0108   39.1526    6.5027 C.ar    1  UNL1       -0.0021
     24 C           7.6652   39.1693    6.1268 C.ar    1  UNL1       -0.0002
     25 C           6.8351   40.2101    6.5490 C.ar    1  UNL1        0.0008
     26 C           7.3510   41.2363    7.3446 C.ar    1  UNL1        0.0111
     27 C           8.6970   41.2261    7.7250 C.ar    1  UNL1        0.0550
     28 CL          9.3004   42.5521    8.7077 Cl      1  UNL1       -0.0825
@<TRIPOS>BOND
     1     1     2    1
     2     2     3    1
     3     3     4    1
     4     3     7    1
     5     4     6    1
     6     5     6    1
     7     5     1    1
     8    21     6    1
     9    21    22    1
    10    23    24   ar
    11    25    26   ar
    12    27    28    1
    13    27    22   ar
    14     8    12   ar
    15     8    13    1
    16     9    10   ar
    17    11     7   ar
    18    15    20   ar
    19    16    19   ar
    20    17    18   ar
    21    13    15    1
    22    22    23   ar
    23    24    25   ar
    24    26    27   ar
    25     7    12   ar
    26     8     9   ar
    27    10    11   ar
    28    15    19   ar
    29    16    17   ar
    30    18    20   ar
    31    13    14    1
@<TRIPOS>MOLECULE
MolPort-020-292-989 MCULE-3525130051 PubChem-110265456
 28 31 0 0 0
SMALL
GASTEIGER

@<TRIPOS>ATOM
      1 C           9.2412   42.9401   10.1935 C.3     1  UNL1        0.0178
      2 C          10.5197   42.2668   10.6655 C.3     1  UNL1        0.0087
      3 C          11.0906   41.4182    9.5367 C.3     1  UNL1        0.0563
      4 C          10.0480   40.3984    9.0613 C.3     1  UNL1        0.0783
      5 C           8.2431   41.8821    9.7115 C.3     1  UNL1        0.0724
      6 N           8.7903   41.0356    8.6416 N.3     1  UNL1       -0.2686
      7 C          12.3530   40.7369    9.9590 C.ar    1  UNL1        0.0614
      8 C          14.6870   40.4055    9.6083 C.ar    1  UNL1        0.1339
      9 C          14.7311   39.5056   10.6818 C.ar    1  UNL1        0.0345
     10 C          13.5659   39.2251   11.3954 C.ar    1  UNL1        0.0041
     11 C          12.3677   39.8409   11.0363 C.ar    1  UNL1        0.0149
     12 N          13.5040   40.9926    9.2792 N.ar    1  UNL1       -0.2348
     13 N          15.8557   40.7287    8.8412 N.pl3   1  UNL1       -0.2680
     14 H          16.5219   40.0109    8.7398 H       1  UNL1        0.1565
     15 C          16.1661   41.9760    8.2050 C.ar    1  UNL1        0.2218
     16 C          15.5446   43.6724    6.6760 C.ar    1  UNL1        0.1034
     17 C          16.7175   44.3713    6.9545 C.ar    1  UNL1        0.0414
     18 C          17.6050   43.8288    7.8815 C.ar    1  UNL1        0.1034
     19 N          15.2910   42.4938    7.3025 N.ar    1  UNL1       -0.2120
     20 N          17.3161   42.6478    8.4872 N.ar    1  UNL1       -0.2120
     21 C           9.0011   41.8347    7.4349 C.3     1  UNL1        0.1000
     22 C           9.4164   40.9636    6.2917 C.ar    1  UNL1        0.0045
     23 C          10.7034   41.1220    5.7661 C.ar    1  UNL1       -0.0021
     24 C          11.1313   40.3317    4.6963 C.ar    1  UNL1       -0.0002
     25 C          10.2711   39.3805    4.1430 C.ar    1  UNL1        0.0008
     26 C           8.9817   39.2216    4.6573 C.ar    1  UNL1        0.0111
     27 C           8.5466   40.0092    5.7282 C.ar    1  UNL1        0.0550
     28 CL          6.9082   39.7845    6.3226 Cl      1  UNL1       -0.0825
@<TRIPOS>BOND
     1     1     2    1
     2     2     3    1
     3     3     4    1
     4     3     7    1
     5     4     6    1
     6     5     6    1
     7     5     1    1
     8    21     6    1
     9    21    22    1
    10    23    24   ar
    11    25    26   ar
    12    27    28    1
    13    27    22   ar
    14     8    12   ar
    15     8    13    1
    16     9    10   ar
    17    11     7   ar
    18    15    20   ar
    19    16    19   ar
    20    17    18   ar
    21    13    15    1
    22    22    23   ar
    23    24    25   ar
    24    26    27   ar
    25     7    12   ar
    26     8     9   ar
    27    10    11   ar
    28    15    19   ar
    29    16    17   ar
    30    18    20   ar
    31    13    14    1
@<TRIPOS>MOLECULE
MolPort-020-292-989 MCULE-3525130051 PubChem-110265456
 28 31 0 0 0
SMALL
GASTEIGER

@<TRIPOS>ATOM
      1 C          13.1593   39.1256    8.4111 C.3     1  UNL1        0.0178
      2 C          11.6450   39.2410    8.3464 C.3     1  UNL1        0.0087
      3 C          11.2662   40.5720    7.7099 C.3     1  UNL1        0.0563
      4 C          11.8961   41.7315    8.4920 C.3     1  UNL1        0.0783
      5 C          13.7395   40.3152    9.1833 C.3     1  UNL1        0.0724
      6 N          13.3582   41.6085    8.5977 N.3     1  UNL1       -0.2686
      7 C           9.7812   40.7267    7.6254 C.ar    1  UNL1        0.0614
      8 C           7.7205   41.1129    8.7587 C.ar    1  UNL1        0.1339
      9 C           7.0241   41.0190    7.5462 C.ar    1  UNL1        0.0345
     10 C           7.7248   40.7754    6.3649 C.ar    1  UNL1        0.0041
     11 C           9.1107   40.6275    6.3989 C.ar    1  UNL1        0.0149
     12 N           9.0734   40.9646    8.7632 N.ar    1  UNL1       -0.2348
     13 N           7.0484   41.3616   10.0018 N.pl3   1  UNL1       -0.2680
     14 H           7.6207   41.4275   10.8002 H       1  UNL1        0.1565
     15 C           5.6399   41.5252   10.2163 C.ar    1  UNL1        0.2218
     16 C           3.4766   41.8043    9.2976 C.ar    1  UNL1        0.1034
     17 C           2.9241   41.8420   10.5762 C.ar    1  UNL1        0.0414
     18 C           3.7793   41.7155   11.6690 C.ar    1  UNL1        0.1034
     19 N           4.8170   41.6474    9.1410 N.ar    1  UNL1       -0.2120
     20 N           5.1142   41.5602   11.4717 N.ar    1  UNL1       -0.2120
     21 C          13.9795   41.7606    7.2824 C.3     1  UNL1        0.1000
     22 C          15.2719   42.5060    7.3930 C.ar    1  UNL1        0.0045
     23 C          16.2610   42.0027    8.2452 C.ar    1  UNL1       -0.0021
     24 C          17.4816   42.6690    8.3810 C.ar    1  UNL1       -0.0002
     25 C          17.7177   43.8462    7.6675 C.ar    1  UNL1        0.0008
     26 C          16.7321   44.3593    6.8204 C.ar    1  UNL1        0.0111
     27 C          15.5078   43.6977    6.6793 C.ar    1  UNL1        0.0550
     28 CL         14.2943   44.3972    5.6182 Cl      1  UNL1       -0.0825
@<TRIPOS>BOND
     1     1     2    1
     2     2     3    1
     3     3     4    1
     4     3     7    1
     5     4     6    1
     6     5     6    1
     7     5     1    1
     8    21     6    1
     9    21    22    1
    10    23    24   ar
    11    25    26   ar
    12    27    28    1
    13    27    22   ar
    14     8    12   ar
    15     8    13    1
    16     9    10   ar
    17    11     7   ar
    18    15    20   ar
    19    16    19   ar
    20    17    18   ar
    21    13    15    1
    22    22    23   ar
    23    24    25   ar
    24    26    27   ar
    25     7    12   ar
    26     8     9   ar
    27    10    11   ar
    28    15    19   ar
    29    16    17   ar
    30    18    20   ar
    31    13    14    1
@<TRIPOS>MOLECULE
MolPort-020-292-989 MCULE-3525130051 PubChem-110265456
 28 31 0 0 0
SMALL
GASTEIGER

@<TRIPOS>ATOM
      1 C          10.7591   40.0430    5.1284 C.3     1  UNL1        0.0178
      2 C           9.4215   40.5894    5.6005 C.3     1  UNL1        0.0087
      3 C           9.6560   41.8142    6.4751 C.3     1  UNL1        0.0563
      4 C          10.5760   41.4580    7.6497 C.3     1  UNL1        0.0783
      5 C          11.6461   39.7227    6.3362 C.3     1  UNL1        0.0724
      6 N          11.8577   40.8885    7.2062 N.3     1  UNL1       -0.2686
      7 C           8.3627   42.3858    6.9615 C.ar    1  UNL1        0.0614
      8 C           6.8344   42.6828    8.7661 C.ar    1  UNL1        0.1339
      9 C           5.9755   43.4117    7.9325 C.ar    1  UNL1        0.0345
     10 C           6.3242   43.6240    6.5987 C.ar    1  UNL1        0.0041
     11 C           7.5228   43.1105    6.1053 C.ar    1  UNL1        0.0149
     12 N           7.9984   42.1928    8.2585 N.ar    1  UNL1       -0.2348
     13 N           6.5235   42.4352   10.1449 N.pl3   1  UNL1       -0.2680
     14 H           7.2290   42.6532   10.7960 H       1  UNL1        0.1565
     15 C           5.3042   41.9071   10.6845 C.ar    1  UNL1        0.2218
     16 C           2.9734   42.1470   11.0190 C.ar    1  UNL1        0.1034
     17 C           2.9336   40.9342   11.7040 C.ar    1  UNL1        0.0414
     18 C           4.1228   40.2252   11.8607 C.ar    1  UNL1        0.1034
     19 N           4.1512   42.6095   10.5242 N.ar    1  UNL1       -0.2120
     20 N           5.2806   40.7205   11.3516 N.ar    1  UNL1       -0.2120
     21 C          12.6476   41.8974    6.5010 C.3     1  UNL1        0.1000
     22 C          14.0110   42.0164    7.1052 C.ar    1  UNL1        0.0045
     23 C          14.3506   41.1602    8.1585 C.ar    1  UNL1       -0.0021
     24 C          15.6120   41.2394    8.7540 C.ar    1  UNL1       -0.0002
     25 C          16.5400   42.1799    8.3014 C.ar    1  UNL1        0.0008
     26 C          16.2058   43.0437    7.2553 C.ar    1  UNL1        0.0111
     27 C          14.9450   42.9701    6.6542 C.ar    1  UNL1        0.0550
     28 CL         14.5677   44.0942    5.3573 Cl      1  UNL1       -0.0825
@<TRIPOS>BOND
     1     1     2    1
     2     2     3    1
     3     3     4    1
     4     3     7    1
     5     4     6    1
     6     5     6    1
     7     5     1    1
     8    21     6    1
     9    21    22    1
    10    23    24   ar
    11    25    26   ar
    12    27    28    1
    13    27    22   ar
    14     8    12   ar
    15     8    13    1
    16     9    10   ar
    17    11     7   ar
    18    15    20   ar
    19    16    19   ar
    20    17    18   ar
    21    13    15    1
    22    22    23   ar
    23    24    25   ar
    24    26    27   ar
    25     7    12   ar
    26     8     9   ar
    27    10    11   ar
    28    15    19   ar
    29    16    17   ar
    30    18    20   ar
    31    13    14    1
