@<TRIPOS>MOLECULE
MolPort-008-361-976 55060657 CSSS00160015778 MCULE-9327796142 PubChem-46984026 ZINC000055060657 ZINC55060657
 27 28 0 0 0
SMALL
GASTEIGER

@<TRIPOS>ATOM
      1 N          12.5571   40.3590    8.6600 N.3     1  UNL1       -0.2629
      2 C          14.0071   40.3102    8.7975 C.3     1  UNL1        0.1019
      3 C          14.0628   42.1652    7.0028 C.ar    1  UNL1        0.0774
      4 C          12.6702   42.0411    6.4924 C.3     1  UNL1        0.0537
      5 C          14.6303   41.4248    8.0231 C.ar    1  UNL1        0.0223
      6 C          15.9255   41.8888    8.1100 C.ar    1  UNL1        0.0544
      7 C          16.9807   41.4010    9.0456 C.3     1  UNL1        0.0514
      8 N          16.0929   42.8573    7.1886 N.ar    1  UNL1       -0.2555
      9 N          14.9672   43.0366    6.5126 N.ar    1  UNL1       -0.1743
     10 C          17.8604   44.1348    8.2758 C.3     1  UNL1        0.0284
     11 C          17.3086   43.6243    6.9584 C.3     1  UNL1        0.1271
     12 C          12.0776   39.0075    8.3915 C.3     1  UNL1        0.1051
     13 C          12.0904   38.1852    9.6684 C.3     1  UNL1        0.1596
     14 C          12.2299   36.1229   10.4392 C.3     1  UNL1        0.1742
     15 O          12.7167   36.9601    9.4367 O.3     1  UNL1       -0.3496
     16 C          11.9387   40.9006    9.8821 C.3     1  UNL1        0.0995
     17 C          10.6472   41.6407    9.6570 C.ar    1  UNL1       -0.0061
     18 C          10.5860   43.0109    9.9286 C.ar    1  UNL1       -0.0016
     19 C           9.3877   43.7081    9.7531 C.ar    1  UNL1        0.0144
     20 C           8.2356   43.0394    9.3117 C.ar    1  UNL1        0.0503
     21 C           8.2980   41.6654    9.0562 C.ar    1  UNL1        0.0144
     22 C           9.4961   40.9673    9.2317 C.ar    1  UNL1       -0.0016
     23 C           6.3877   44.0718    7.8664 C.2     1  UNL1        0.2266
     24 C           5.0842   44.7849    7.8596 C.3     1  UNL1        0.0949
     25 N           6.9885   43.7210    9.1193 N.am    1  UNL1       -0.2839
     26 O           6.9416   43.7879    6.7717 O.2     1  UNL1       -0.2748
     27 H           6.4941   43.9742    9.9321 H       1  UNL1        0.1549
@<TRIPOS>BOND
     1    10    11    1
     2    11     8    1
     3     3     5   ar
     4     4     3    1
     5     2     5    1
     6     2     1    1
     7    12     1    1
     8    12    13    1
     9    13    15    1
    10    14    15    1
    11    16     1    1
    12    16    17    1
    13    18    19   ar
    14    20    25    1
    15    20    21   ar
    16    24    23    1
    17    22    17   ar
    18     6     8   ar
    19     7     6    1
    20     8     9   ar
    21    25    23   am
    22     3     9   ar
    23     5     6   ar
    24    17    18   ar
    25    19    20   ar
    26    23    26    2
    27    21    22   ar
    28    25    27    1
@<TRIPOS>MOLECULE
MolPort-008-361-976 55060657 CSSS00160015778 MCULE-9327796142 PubChem-46984026 ZINC000055060657 ZINC55060657
 27 28 0 0 0
SMALL
GASTEIGER

@<TRIPOS>ATOM
      1 N          12.8026   40.1557    8.7943 N.3     1  UNL1       -0.2629
      2 C          14.2390   40.2130    8.5554 C.3     1  UNL1        0.1019
      3 C          13.8393   42.1448    6.8899 C.ar    1  UNL1        0.0774
      4 C          12.4839   41.7632    6.4075 C.3     1  UNL1        0.0537
      5 C          14.5871   41.4786    7.8429 C.ar    1  UNL1        0.0223
      6 C          15.7603   42.1973    7.9284 C.ar    1  UNL1        0.0544
      7 C          16.9293   41.8850    8.8017 C.3     1  UNL1        0.0514
      8 N          15.6874   43.2338    7.0709 N.ar    1  UNL1       -0.2555
      9 N          14.5237   43.2144    6.4372 N.ar    1  UNL1       -0.1743
     10 C          17.5743   43.8847    5.6728 C.3     1  UNL1        0.0284
     11 C          16.7079   44.2510    6.8627 C.3     1  UNL1        0.1271
     12 C          12.3749   38.7657    8.6779 C.3     1  UNL1        0.1051
     13 C          13.4355   37.8427    9.2522 C.3     1  UNL1        0.1596
     14 C          11.8349   36.6398   10.1784 C.3     1  UNL1        0.1742
     15 O          12.9383   36.5415    9.3323 O.3     1  UNL1       -0.3496
     16 C          12.4770   40.6937   10.1262 C.3     1  UNL1        0.0995
     17 C          11.0189   41.0020   10.3392 C.ar    1  UNL1       -0.0061
     18 C          10.1944   41.2161    9.2306 C.ar    1  UNL1       -0.0016
     19 C           8.8450   41.5321    9.4103 C.ar    1  UNL1        0.0144
     20 C           8.3085   41.6451   10.7021 C.ar    1  UNL1        0.0503
     21 C           9.1412   41.4452   11.8083 C.ar    1  UNL1        0.0144
     22 C          10.4910   41.1294   11.6295 C.ar    1  UNL1       -0.0016
     23 C           5.8370   41.7313   10.0283 C.2     1  UNL1        0.2266
     24 C           4.4654   42.1371   10.4299 C.3     1  UNL1        0.0949
     25 N           6.9290   41.9669   10.9261 N.am    1  UNL1       -0.2839
     26 O           6.0164   41.1875    8.9068 O.2     1  UNL1       -0.2748
     27 H           6.7094   42.3938   11.7856 H       1  UNL1        0.1549
@<TRIPOS>BOND
     1    10    11    1
     2    11     8    1
     3     3     5   ar
     4     4     3    1
     5     2     5    1
     6     2     1    1
     7    12     1    1
     8    12    13    1
     9    13    15    1
    10    14    15    1
    11    16     1    1
    12    16    17    1
    13    18    19   ar
    14    20    25    1
    15    20    21   ar
    16    24    23    1
    17    22    17   ar
    18     6     8   ar
    19     7     6    1
    20     8     9   ar
    21    25    23   am
    22     3     9   ar
    23     5     6   ar
    24    17    18   ar
    25    19    20   ar
    26    23    26    2
    27    21    22   ar
    28    25    27    1
@<TRIPOS>MOLECULE
MolPort-008-361-976 55060657 CSSS00160015778 MCULE-9327796142 PubChem-46984026 ZINC000055060657 ZINC55060657
 27 28 0 0 0
SMALL
GASTEIGER

@<TRIPOS>ATOM
      1 N          10.3569   39.6203    6.6755 N.3     1  UNL1       -0.2629
      2 C           9.3814   39.5406    7.7552 C.3     1  UNL1        0.1019
      3 C           7.2627   40.7638    6.9305 C.ar    1  UNL1        0.0774
      4 C           6.6728   39.6789    6.0996 C.3     1  UNL1        0.0537
      5 C           8.4296   40.6882    7.6679 C.ar    1  UNL1        0.0223
      6 C           8.5612   41.9361    8.2385 C.ar    1  UNL1        0.0544
      7 C           9.6755   42.3952    9.1185 C.3     1  UNL1        0.0514
      8 N           7.5141   42.6919    7.8545 N.ar    1  UNL1       -0.2555
      9 N           6.7167   41.9893    7.0629 N.ar    1  UNL1       -0.1743
     10 C           5.7696   44.2876    8.4448 C.3     1  UNL1        0.0284
     11 C           7.2577   44.0697    8.2483 C.3     1  UNL1        0.1271
     12 C           9.7705   39.0160    5.4841 C.3     1  UNL1        0.1051
     13 C           9.9284   39.9468    4.2943 C.3     1  UNL1        0.1596
     14 C           9.5619   38.1410    3.0813 C.3     1  UNL1        0.1742
     15 O           9.1758   39.4733    3.2191 O.3     1  UNL1       -0.3496
     16 C          10.7339   41.0210    6.4203 C.3     1  UNL1        0.0995
     17 C          12.1592   41.3604    6.7668 C.ar    1  UNL1       -0.0061
     18 C          12.7801   40.7043    7.8340 C.ar    1  UNL1       -0.0016
     19 C          14.0928   41.0274    8.1881 C.ar    1  UNL1        0.0144
     20 C          14.7951   42.0166    7.4827 C.ar    1  UNL1        0.0503
     21 C          14.1641   42.6811    6.4257 C.ar    1  UNL1        0.0144
     22 C          12.8512   42.3587    6.0710 C.ar    1  UNL1       -0.0016
     23 C          16.7445   43.6688    7.6827 C.2     1  UNL1        0.2266
     24 C          18.1647   43.8547    8.0776 C.3     1  UNL1        0.0949
     25 N          16.1432   42.3747    7.8163 N.am    1  UNL1       -0.2839
     26 O          16.0939   44.6509    7.2380 O.2     1  UNL1       -0.2748
     27 H          16.7147   41.6574    8.1740 H       1  UNL1        0.1549
@<TRIPOS>BOND
     1    10    11    1
     2    11     8    1
     3     3     5   ar
     4     4     3    1
     5     2     5    1
     6     2     1    1
     7    12     1    1
     8    12    13    1
     9    13    15    1
    10    14    15    1
    11    16     1    1
    12    16    17    1
    13    18    19   ar
    14    20    25    1
    15    20    21   ar
    16    24    23    1
    17    22    17   ar
    18     6     8   ar
    19     7     6    1
    20     8     9   ar
    21    25    23   am
    22     3     9   ar
    23     5     6   ar
    24    17    18   ar
    25    19    20   ar
    26    23    26    2
    27    21    22   ar
    28    25    27    1
@<TRIPOS>MOLECULE
MolPort-008-361-976 55060657 CSSS00160015778 MCULE-9327796142 PubChem-46984026 ZINC000055060657 ZINC55060657
 27 28 0 0 0
SMALL
GASTEIGER

@<TRIPOS>ATOM
      1 N          10.3088   39.5986    6.6620 N.3     1  UNL1       -0.2629
      2 C           9.1692   39.4545    7.5586 C.3     1  UNL1        0.1019
      3 C           9.0851   41.4669    9.1737 C.ar    1  UNL1        0.0774
      4 C          10.0784   41.0027   10.1803 C.3     1  UNL1        0.0537
      5 C           8.7123   40.7987    8.0223 C.ar    1  UNL1        0.0223
      6 C           7.7637   41.6122    7.4404 C.ar    1  UNL1        0.0544
      7 C           7.0172   41.3399    6.1774 C.3     1  UNL1        0.0514
      8 N           7.6046   42.7021    8.2162 N.ar    1  UNL1       -0.2555
      9 N           8.4047   42.6267    9.2699 N.ar    1  UNL1       -0.1743
     10 C           5.4148   43.6443    8.7214 C.3     1  UNL1        0.0284
     11 C           6.7111   43.8212    7.9541 C.3     1  UNL1        0.1271
     12 C           9.9710   38.9715    5.3887 C.3     1  UNL1        0.1051
     13 C           9.9057   40.0194    4.2912 C.3     1  UNL1        0.1596
     14 C           9.5637   38.1579    3.1578 C.3     1  UNL1        0.1742
     15 O           9.2203   39.5085    3.1885 O.3     1  UNL1       -0.3496
     16 C          10.6426   41.0206    6.4727 C.3     1  UNL1        0.0995
     17 C          12.0571   41.3870    6.8355 C.ar    1  UNL1       -0.0061
     18 C          12.7094   42.3949    6.1191 C.ar    1  UNL1       -0.0016
     19 C          14.0322   42.7281    6.4230 C.ar    1  UNL1        0.0144
     20 C          14.7186   42.0501    7.4420 C.ar    1  UNL1        0.0503
     21 C          14.0666   41.0317    8.1454 C.ar    1  UNL1        0.0144
     22 C          12.7438   40.6977    7.8420 C.ar    1  UNL1       -0.0016
     23 C          16.7212   43.6367    7.6467 C.2     1  UNL1        0.2266
     24 C          18.1442   43.7768    8.0502 C.3     1  UNL1        0.0949
     25 N          16.0758   42.3644    7.7828 N.am    1  UNL1       -0.2839
     26 O          16.1070   44.6378    7.1926 O.2     1  UNL1       -0.2748
     27 H          16.6204   41.6301    8.1480 H       1  UNL1        0.1549
@<TRIPOS>BOND
     1    10    11    1
     2    11     8    1
     3     3     5   ar
     4     4     3    1
     5     2     5    1
     6     2     1    1
     7    12     1    1
     8    12    13    1
     9    13    15    1
    10    14    15    1
    11    16     1    1
    12    16    17    1
    13    18    19   ar
    14    20    25    1
    15    20    21   ar
    16    24    23    1
    17    22    17   ar
    18     6     8   ar
    19     7     6    1
    20     8     9   ar
    21    25    23   am
    22     3     9   ar
    23     5     6   ar
    24    17    18   ar
    25    19    20   ar
    26    23    26    2
    27    21    22   ar
    28    25    27    1
@<TRIPOS>MOLECULE
MolPort-008-361-976 55060657 CSSS00160015778 MCULE-9327796142 PubChem-46984026 ZINC000055060657 ZINC55060657
 27 28 0 0 0
SMALL
GASTEIGER

@<TRIPOS>ATOM
      1 N          10.9899   40.5624    9.3862 N.3     1  UNL1       -0.2629
      2 C          10.0242   39.8054    8.6002 C.3     1  UNL1        0.1019
      3 C          10.0452   41.1946    6.4242 C.ar    1  UNL1        0.0774
      4 C          11.4456   40.9344    5.9921 C.3     1  UNL1        0.0537
      5 C           9.4257   40.6801    7.5480 C.ar    1  UNL1        0.0223
      6 C           8.1581   41.2210    7.5240 C.ar    1  UNL1        0.0544
      7 C           7.0824   41.0034    8.5351 C.3     1  UNL1        0.0514
      8 N           8.0501   42.0033    6.4325 N.ar    1  UNL1       -0.2555
      9 N           9.1889   41.9921    5.7548 N.ar    1  UNL1       -0.1743
     10 C           6.7368   44.0146    6.8426 C.3     1  UNL1        0.0284
     11 C           6.8681   42.7466    6.0207 C.3     1  UNL1        0.1271
     12 C          10.3104   41.7237    9.9503 C.3     1  UNL1        0.1051
     13 C          11.1386   42.9761    9.7214 C.3     1  UNL1        0.1596
     14 C           9.2007   43.5947   10.5749 C.3     1  UNL1        0.1742
     15 O          10.4033   44.1039   10.0877 O.3     1  UNL1       -0.3496
     16 C          11.5629   39.7225   10.4519 C.3     1  UNL1        0.0995
     17 C          13.0676   39.6870   10.4823 C.ar    1  UNL1       -0.0061
     18 C          13.7883   40.2571    9.4286 C.ar    1  UNL1       -0.0016
     19 C          15.1849   40.2076    9.4259 C.ar    1  UNL1        0.0144
     20 C          15.8747   39.5797   10.4743 C.ar    1  UNL1        0.0503
     21 C          15.1487   38.9971   11.5185 C.ar    1  UNL1        0.0144
     22 C          13.7518   39.0459   11.5218 C.ar    1  UNL1       -0.0016
     23 C          18.1265   38.4656    9.9666 C.2     1  UNL1        0.2266
     24 C          19.6035   38.5599   10.0970 C.3     1  UNL1        0.0949
     25 N          17.3068   39.5097   10.5066 N.am    1  UNL1       -0.2839
     26 O          17.6207   37.4705    9.3839 O.2     1  UNL1       -0.2748
     27 H          17.7753   40.2563   10.9453 H       1  UNL1        0.1549
@<TRIPOS>BOND
     1    10    11    1
     2    11     8    1
     3     3     5   ar
     4     4     3    1
     5     2     5    1
     6     2     1    1
     7    12     1    1
     8    12    13    1
     9    13    15    1
    10    14    15    1
    11    16     1    1
    12    16    17    1
    13    18    19   ar
    14    20    25    1
    15    20    21   ar
    16    24    23    1
    17    22    17   ar
    18     6     8   ar
    19     7     6    1
    20     8     9   ar
    21    25    23   am
    22     3     9   ar
    23     5     6   ar
    24    17    18   ar
    25    19    20   ar
    26    23    26    2
    27    21    22   ar
    28    25    27    1
@<TRIPOS>MOLECULE
MolPort-008-361-976 55060657 CSSS00160015778 MCULE-9327796142 PubChem-46984026 ZINC000055060657 ZINC55060657
 27 28 0 0 0
SMALL
GASTEIGER

@<TRIPOS>ATOM
      1 N          11.7818   41.2729    8.8771 N.3     1  UNL1       -0.2629
      2 C          12.4989   40.9951    7.6393 C.3     1  UNL1        0.1019
      3 C          14.9149   41.0362    8.5485 C.ar    1  UNL1        0.0774
      4 C          14.8392   39.8707    9.4711 C.3     1  UNL1        0.0537
      5 C          13.8993   41.5050    7.7361 C.ar    1  UNL1        0.0223
      6 C          14.4428   42.5987    7.0968 C.ar    1  UNL1        0.0544
      7 C          13.7503   43.4887    6.1196 C.3     1  UNL1        0.0514
      8 N          15.7148   42.7470    7.5152 N.ar    1  UNL1       -0.2555
      9 N          16.0139   41.8015    8.3943 N.ar    1  UNL1       -0.1743
     10 C          18.0035   43.5565    7.7274 C.3     1  UNL1        0.0284
     11 C          16.6519   43.7694    7.0727 C.3     1  UNL1        0.1271
     12 C          11.0474   42.5223    8.7095 C.3     1  UNL1        0.1051
     13 C          10.9650   43.2617   10.0337 C.3     1  UNL1        0.1596
     14 C           9.1713   44.5372   10.1831 C.3     1  UNL1        0.1742
     15 O          10.5171   44.5659    9.8210 O.3     1  UNL1       -0.3496
     16 C          10.8656   40.1671    9.2045 C.3     1  UNL1        0.0995
     17 C           9.4040   40.5032    9.0727 C.ar    1  UNL1       -0.0061
     18 C           8.7534   40.2686    7.8576 C.ar    1  UNL1       -0.0016
     19 C           7.4044   40.6014    7.7082 C.ar    1  UNL1        0.0144
     20 C           6.6943   41.1801    8.7713 C.ar    1  UNL1        0.0503
     21 C           7.3538   41.4271    9.9800 C.ar    1  UNL1        0.0144
     22 C           8.7031   41.0948   10.1302 C.ar    1  UNL1       -0.0016
     23 C           4.2505   41.1541    9.5436 C.2     1  UNL1        0.2266
     24 C           2.8659   41.6141    9.2626 C.3     1  UNL1        0.0949
     25 N           5.3094   41.5344    8.6559 N.am    1  UNL1       -0.2839
     26 O           4.4696   40.4388   10.5565 O.2     1  UNL1       -0.2748
     27 H           5.0603   42.0970    7.8874 H       1  UNL1        0.1549
@<TRIPOS>BOND
     1    10    11    1
     2    11     8    1
     3     3     5   ar
     4     4     3    1
     5     2     5    1
     6     2     1    1
     7    12     1    1
     8    12    13    1
     9    13    15    1
    10    14    15    1
    11    16     1    1
    12    16    17    1
    13    18    19   ar
    14    20    25    1
    15    20    21   ar
    16    24    23    1
    17    22    17   ar
    18     6     8   ar
    19     7     6    1
    20     8     9   ar
    21    25    23   am
    22     3     9   ar
    23     5     6   ar
    24    17    18   ar
    25    19    20   ar
    26    23    26    2
    27    21    22   ar
    28    25    27    1
@<TRIPOS>MOLECULE
MolPort-008-361-976 55060657 CSSS00160015778 MCULE-9327796142 PubChem-46984026 ZINC000055060657 ZINC55060657
 27 28 0 0 0
SMALL
GASTEIGER

@<TRIPOS>ATOM
      1 N          12.8252   39.9228    9.1932 N.3     1  UNL1       -0.2629
      2 C          14.2815   39.9723    9.1743 C.3     1  UNL1        0.1019
      3 C          15.9478   41.7720    8.3680 C.ar    1  UNL1        0.0774
      4 C          17.0794   41.4742    9.2878 C.3     1  UNL1        0.0537
      5 C          14.7421   41.0982    8.3078 C.ar    1  UNL1        0.0223
      6 C          14.0282   41.7508    7.3256 C.ar    1  UNL1        0.0544
      7 C          12.6403   41.4329    6.8793 C.3     1  UNL1        0.0514
      8 N          14.7910   42.7481    6.8371 N.ar    1  UNL1       -0.2555
      9 N          15.9606   42.7683    7.4600 N.ar    1  UNL1       -0.1743
     10 C          15.1568   44.9858    5.9441 C.3     1  UNL1        0.0284
     11 C          14.4229   43.6696    5.7719 C.3     1  UNL1        0.1271
     12 C          12.4089   38.5724    8.8303 C.3     1  UNL1        0.1051
     13 C          13.5379   37.5901    9.0894 C.3     1  UNL1        0.1596
     14 C          11.8373   36.6693   10.1508 C.3     1  UNL1        0.1742
     15 O          13.2256   36.7882   10.1876 O.3     1  UNL1       -0.3496
     16 C          12.3116   40.2889   10.5242 C.3     1  UNL1        0.0995
     17 C          10.9272   40.8803   10.5218 C.ar    1  UNL1       -0.0061
     18 C          10.2637   41.0771   11.7367 C.ar    1  UNL1       -0.0016
     19 C           8.9669   41.5978   11.7517 C.ar    1  UNL1        0.0144
     20 C           8.3174   41.9194   10.5500 C.ar    1  UNL1        0.0503
     21 C           8.9796   41.7060    9.3363 C.ar    1  UNL1        0.0144
     22 C          10.2765   41.1851    9.3204 C.ar    1  UNL1       -0.0016
     23 C           5.8776   41.9619    9.7658 C.2     1  UNL1        0.2266
     24 C           4.5655   42.6523    9.8625 C.3     1  UNL1        0.0949
     25 N           6.9877   42.4562   10.5255 N.am    1  UNL1       -0.2839
     26 O           5.9915   40.9548    9.0185 O.2     1  UNL1       -0.2748
     27 H           6.8202   43.2460   11.0889 H       1  UNL1        0.1549
@<TRIPOS>BOND
     1    10    11    1
     2    11     8    1
     3     3     5   ar
     4     4     3    1
     5     2     5    1
     6     2     1    1
     7    12     1    1
     8    12    13    1
     9    13    15    1
    10    14    15    1
    11    16     1    1
    12    16    17    1
    13    18    19   ar
    14    20    25    1
    15    20    21   ar
    16    24    23    1
    17    22    17   ar
    18     6     8   ar
    19     7     6    1
    20     8     9   ar
    21    25    23   am
    22     3     9   ar
    23     5     6   ar
    24    17    18   ar
    25    19    20   ar
    26    23    26    2
    27    21    22   ar
    28    25    27    1
@<TRIPOS>MOLECULE
MolPort-008-361-976 55060657 CSSS00160015778 MCULE-9327796142 PubChem-46984026 ZINC000055060657 ZINC55060657
 27 28 0 0 0
SMALL
GASTEIGER

@<TRIPOS>ATOM
      1 N          12.3174   39.9018    7.3197 N.3     1  UNL1       -0.2629
      2 C          12.5135   41.0789    8.1561 C.3     1  UNL1        0.1019
      3 C          14.1789   42.5920    6.8903 C.ar    1  UNL1        0.0774
      4 C          13.2408   43.2090    5.9132 C.3     1  UNL1        0.0537
      5 C          13.8507   41.6838    7.8796 C.ar    1  UNL1        0.0223
      6 C          15.0480   41.3987    8.5004 C.ar    1  UNL1        0.0544
      7 C          15.2556   40.4471    9.6309 C.3     1  UNL1        0.0514
      8 N          16.0187   42.1162    7.9020 N.ar    1  UNL1       -0.2555
      9 N          15.5021   42.8476    6.9250 N.ar    1  UNL1       -0.1743
     10 C          17.9354   43.5512    8.3551 C.3     1  UNL1        0.0284
     11 C          17.4289   42.1244    8.2632 C.3     1  UNL1        0.1271
     12 C          11.7817   38.8319    8.1544 C.3     1  UNL1        0.1051
     13 C          12.9133   38.0948    8.8493 C.3     1  UNL1        0.1596
     14 C          11.1311   37.2132    9.8048 C.3     1  UNL1        0.1742
     15 O          12.4335   36.9110    9.4107 O.3     1  UNL1       -0.3496
     16 C          11.4027   40.2044    6.2057 C.3     1  UNL1        0.0995
     17 C           9.9674   40.4110    6.6105 C.ar    1  UNL1       -0.0061
     18 C           9.0669   39.3462    6.5106 C.ar    1  UNL1       -0.0016
     19 C           7.7246   39.5278    6.8543 C.ar    1  UNL1        0.0144
     20 C           7.2678   40.7797    7.2941 C.ar    1  UNL1        0.0503
     21 C           8.1694   41.8460    7.3776 C.ar    1  UNL1        0.0144
     22 C           9.5121   41.6653    7.0337 C.ar    1  UNL1       -0.0016
     23 C           5.3816   41.1940    8.9795 C.2     1  UNL1        0.2266
     24 C           3.9238   41.4114    9.1662 C.3     1  UNL1        0.0949
     25 N           5.8984   41.0041    7.6563 N.am    1  UNL1       -0.2839
     26 O           6.1376   41.1806    9.9863 O.2     1  UNL1       -0.2748
     27 H           5.2457   41.0304    6.9197 H       1  UNL1        0.1549
@<TRIPOS>BOND
     1    10    11    1
     2    11     8    1
     3     3     5   ar
     4     4     3    1
     5     2     5    1
     6     2     1    1
     7    12     1    1
     8    12    13    1
     9    13    15    1
    10    14    15    1
    11    16     1    1
    12    16    17    1
    13    18    19   ar
    14    20    25    1
    15    20    21   ar
    16    24    23    1
    17    22    17   ar
    18     6     8   ar
    19     7     6    1
    20     8     9   ar
    21    25    23   am
    22     3     9   ar
    23     5     6   ar
    24    17    18   ar
    25    19    20   ar
    26    23    26    2
    27    21    22   ar
    28    25    27    1
@<TRIPOS>MOLECULE
MolPort-008-361-976 55060657 CSSS00160015778 MCULE-9327796142 PubChem-46984026 ZINC000055060657 ZINC55060657
 27 28 0 0 0
SMALL
GASTEIGER

@<TRIPOS>ATOM
      1 N          11.9787   41.1184    8.3087 N.3     1  UNL1       -0.2629
      2 C          12.4388   40.7874    9.6512 C.3     1  UNL1        0.1019
      3 C          14.5666   39.3327    9.5047 C.ar    1  UNL1        0.0774
      4 C          15.5864   40.4141    9.4269 C.3     1  UNL1        0.0537
      5 C          13.2001   39.5027    9.6268 C.ar    1  UNL1        0.0223
      6 C          12.6904   38.2219    9.6377 C.ar    1  UNL1        0.0544
      7 C          11.2502   37.8420    9.7277 C.3     1  UNL1        0.0514
      8 N          13.7166   37.3550    9.5356 N.ar    1  UNL1       -0.2555
      9 N          14.8614   38.0180    9.4580 N.ar    1  UNL1       -0.1743
     10 C          14.8269   35.3009    8.8383 C.3     1  UNL1        0.0284
     11 C          13.6179   35.9026    9.5289 C.3     1  UNL1        0.1271
     12 C          13.0894   40.9224    7.3834 C.3     1  UNL1        0.1051
     13 C          13.7963   42.2423    7.1284 C.3     1  UNL1        0.1596
     14 C          14.0418   43.9984    5.8159 C.3     1  UNL1        0.1742
     15 O          13.2876   42.8368    5.9731 O.3     1  UNL1       -0.3496
     16 C          10.8296   40.2772    7.9328 C.3     1  UNL1        0.0995
     17 C           9.5235   41.0162    7.8123 C.ar    1  UNL1       -0.0061
     18 C           8.5941   40.9402    8.8540 C.ar    1  UNL1       -0.0016
     19 C           7.3647   41.5959    8.7469 C.ar    1  UNL1        0.0144
     20 C           7.0493   42.3282    7.5921 C.ar    1  UNL1        0.0503
     21 C           7.9762   42.3885    6.5461 C.ar    1  UNL1        0.0144
     22 C           9.2060   41.7327    6.6523 C.ar    1  UNL1       -0.0016
     23 C           5.4491   44.2876    8.0044 C.2     1  UNL1        0.2266
     24 C           4.0963   44.8464    7.7494 C.3     1  UNL1        0.0949
     25 N           5.7986   43.0147    7.4461 N.am    1  UNL1       -0.2839
     26 O           6.2649   44.9416    8.7061 O.2     1  UNL1       -0.2748
     27 H           5.1088   42.5651    6.9065 H       1  UNL1        0.1549
@<TRIPOS>BOND
     1    10    11    1
     2    11     8    1
     3     3     5   ar
     4     4     3    1
     5     2     5    1
     6     2     1    1
     7    12     1    1
     8    12    13    1
     9    13    15    1
    10    14    15    1
    11    16     1    1
    12    16    17    1
    13    18    19   ar
    14    20    25    1
    15    20    21   ar
    16    24    23    1
    17    22    17   ar
    18     6     8   ar
    19     7     6    1
    20     8     9   ar
    21    25    23   am
    22     3     9   ar
    23     5     6   ar
    24    17    18   ar
    25    19    20   ar
    26    23    26    2
    27    21    22   ar
    28    25    27    1
@<TRIPOS>MOLECULE
MolPort-008-361-976 55060657 CSSS00160015778 MCULE-9327796142 PubChem-46984026 ZINC000055060657 ZINC55060657
 27 28 0 0 0
SMALL
GASTEIGER

@<TRIPOS>ATOM
      1 N          10.5996   40.1150    6.6542 N.3     1  UNL1       -0.2629
      2 C           9.7472   40.2275    7.8307 C.3     1  UNL1        0.1019
      3 C          10.8758   41.2284    9.9259 C.ar    1  UNL1        0.0774
      4 C          10.3717   42.6249    9.8206 C.3     1  UNL1        0.0537
      5 C          10.5802   40.1841    9.0696 C.ar    1  UNL1        0.0223
      6 C          11.2921   39.1141    9.5682 C.ar    1  UNL1        0.0544
      7 C          11.3420   37.7379    8.9936 C.3     1  UNL1        0.0514
      8 N          11.9593   39.5215   10.6654 N.ar    1  UNL1       -0.2555
      9 N          11.7112   40.8029   10.8947 N.ar    1  UNL1       -0.1743
     10 C          14.2463   39.1989   11.4426 C.3     1  UNL1        0.0284
     11 C          12.8161   38.6978   11.5061 C.3     1  UNL1        0.1271
     12 C           9.8632   39.3912    5.6235 C.3     1  UNL1        0.1051
     13 C          10.0811   40.0440    4.2696 C.3     1  UNL1        0.1596
     14 C           9.5347   38.2948    3.0414 C.3     1  UNL1        0.1742
     15 O           9.1234   39.5871    3.3636 O.3     1  UNL1       -0.3496
     16 C          10.9979   41.4491    6.1735 C.3     1  UNL1        0.0995
     17 C          12.3964   41.8602    6.5502 C.ar    1  UNL1       -0.0061
     18 C          12.9612   42.9932    5.9567 C.ar    1  UNL1       -0.0016
     19 C          14.2684   43.3728    6.2726 C.ar    1  UNL1        0.0144
     20 C          15.0271   42.6177    7.1800 C.ar    1  UNL1        0.0503
     21 C          14.4630   41.4762    7.7593 C.ar    1  UNL1        0.0144
     22 C          13.1556   41.0955    7.4437 C.ar    1  UNL1       -0.0016
     23 C          17.1769   43.9872    6.9108 C.2     1  UNL1        0.2266
     24 C          18.5584   44.2194    7.4059 C.3     1  UNL1        0.0949
     25 N          16.3711   42.9763    7.5293 N.am    1  UNL1       -0.2839
     26 O          16.7381   44.6824    5.9570 O.2     1  UNL1       -0.2748
     27 H          16.7826   42.4763    8.2708 H       1  UNL1        0.1549
@<TRIPOS>BOND
     1    10    11    1
     2    11     8    1
     3     3     5   ar
     4     4     3    1
     5     2     5    1
     6     2     1    1
     7    12     1    1
     8    12    13    1
     9    13    15    1
    10    14    15    1
    11    16     1    1
    12    16    17    1
    13    18    19   ar
    14    20    25    1
    15    20    21   ar
    16    24    23    1
    17    22    17   ar
    18     6     8   ar
    19     7     6    1
    20     8     9   ar
    21    25    23   am
    22     3     9   ar
    23     5     6   ar
    24    17    18   ar
    25    19    20   ar
    26    23    26    2
    27    21    22   ar
    28    25    27    1
