@<TRIPOS>MOLECULE
Molport-020-278-742 MCULE-4235539066 PubChem-110255612
 27 30 0 0 0
SMALL
GASTEIGER

@<TRIPOS>ATOM
      1 C           9.7294   41.2883   12.4721 C.3     1  UNL1        0.0737
      2 C           9.1404   41.6729   11.1634 C.ar    1  UNL1        0.1406
      3 C           9.4018   42.0706    8.8469 C.ar    1  UNL1        0.0644
      4 C           8.0472   42.3857    8.7419 C.ar    1  UNL1        0.0492
      5 C           7.2566   42.3320    9.8894 C.ar    1  UNL1        0.1357
      6 N           9.9232   41.7209   10.0544 N.ar    1  UNL1       -0.2348
      7 N           7.8192   41.9767   11.0767 N.ar    1  UNL1       -0.2159
      8 C          10.2655   42.1241    7.6307 C.3     1  UNL1        0.0602
      9 C           9.7889   41.1152    6.5836 C.3     1  UNL1        0.0094
     10 C          10.6760   41.1777    5.3420 C.3     1  UNL1        0.0219
     11 C          12.1272   40.9026    5.7242 C.3     1  UNL1        0.0922
     12 C          11.7270   41.8670    7.9979 C.3     1  UNL1        0.0981
     13 N          12.5349   41.8250    6.7822 N.pl3   1  UNL1       -0.2916
     14 C          13.6737   42.6875    6.6300 C.ar    1  UNL1        0.1511
     15 C          14.6374   44.6633    5.7319 C.ar    1  UNL1        0.1210
     16 C          15.8562   44.3458    6.3319 C.ar    1  UNL1        0.1196
     17 C          14.9013   42.3744    7.2303 C.ar    1  UNL1        0.1331
     18 N          13.5764   43.8297    5.8936 N.ar    1  UNL1       -0.2259
     19 N          15.9617   43.2088    7.0679 N.ar    1  UNL1       -0.2378
     20 N           5.8640   42.6538    9.7922 N.pl3   1  UNL1       -0.2833
     21 H           5.6114   43.3423    9.1354 H       1  UNL1        0.1550
     22 C           4.8036   42.0701   10.5585 C.ar    1  UNL1        0.1332
     23 C           4.9365   40.7540   11.0093 C.ar    1  UNL1        0.0345
     24 C           3.9080   40.1773   11.7566 C.ar    1  UNL1        0.0045
     25 C           2.7604   40.9165   12.0465 C.ar    1  UNL1        0.0208
     26 C           2.6606   42.2287   11.5806 C.ar    1  UNL1        0.1003
     27 N           3.6735   42.7727   10.8538 N.ar    1  UNL1       -0.2290
@<TRIPOS>BOND
     1     1     2    1
     2     2     7   ar
     3     3     6   ar
     4     4     5   ar
     5     5    20    1
     6    22    27   ar
     7    23    24   ar
     8    25    26   ar
     9     8     3    1
    10     8     9    1
    11     9    10    1
    12    10    11    1
    13    11    13    1
    14    12    13    1
    15    12     8    1
    16    15    18   ar
    17    16    19   ar
    18    17    14   ar
    19    20    22    1
    20    13    14    1
    21     2     6   ar
    22     3     4   ar
    23     5     7   ar
    24    22    23   ar
    25    24    25   ar
    26    26    27   ar
    27    14    18   ar
    28    15    16   ar
    29    17    19   ar
    30    20    21    1
@<TRIPOS>MOLECULE
Molport-020-278-742 MCULE-4235539066 PubChem-110255612
 27 30 0 0 0
SMALL
GASTEIGER

@<TRIPOS>ATOM
      1 C           9.1172   41.0482   14.5503 C.3     1  UNL1        0.0737
      2 C           9.1593   41.3181   13.0898 C.ar    1  UNL1        0.1406
      3 C          10.3546   41.3187   11.0492 C.ar    1  UNL1        0.0644
      4 C           9.2343   41.8191   10.3860 C.ar    1  UNL1        0.0492
      5 C           8.0738   42.0604   11.1207 C.ar    1  UNL1        0.1357
      6 N          10.2969   41.0781   12.3875 N.ar    1  UNL1       -0.2348
      7 N           8.0599   41.8051   12.4575 N.ar    1  UNL1       -0.2159
      8 C          11.6071   41.0555   10.2811 C.3     1  UNL1        0.0602
      9 C          11.4139   41.3886    8.8001 C.3     1  UNL1        0.0094
     10 C          12.7000   41.1189    8.0219 C.3     1  UNL1        0.0219
     11 C          13.1143   39.6602    8.1897 C.3     1  UNL1        0.0922
     12 C          12.0464   39.6013   10.4516 C.3     1  UNL1        0.0981
     13 N          13.2138   39.3433    9.6131 N.pl3   1  UNL1       -0.2916
     14 C          14.4247   38.8225   10.1845 C.ar    1  UNL1        0.1511
     15 C          16.6149   37.9527    9.8924 C.ar    1  UNL1        0.1210
     16 C          16.7503   37.8200   11.2745 C.ar    1  UNL1        0.1196
     17 C          14.5674   38.6866   11.5725 C.ar    1  UNL1        0.1331
     18 N          15.4587   38.4494    9.3795 N.ar    1  UNL1       -0.2259
     19 N          15.7242   38.1898   12.0844 N.ar    1  UNL1       -0.2378
     20 N           6.9177   42.5743   10.4489 N.pl3   1  UNL1       -0.2833
     21 H           7.0046   43.4603   10.0286 H       1  UNL1        0.1550
     22 C           5.6471   41.9231   10.3298 C.ar    1  UNL1        0.1332
     23 C           5.2657   40.9956   11.3031 C.ar    1  UNL1        0.0345
     24 C           4.0294   40.3562   11.1947 C.ar    1  UNL1        0.0045
     25 C           3.1879   40.6473   10.1201 C.ar    1  UNL1        0.0208
     26 C           3.6004   41.5790    9.1659 C.ar    1  UNL1        0.1003
     27 N           4.8088   42.1912    9.2890 N.ar    1  UNL1       -0.2290
@<TRIPOS>BOND
     1     1     2    1
     2     2     7   ar
     3     3     6   ar
     4     4     5   ar
     5     5    20    1
     6    22    27   ar
     7    23    24   ar
     8    25    26   ar
     9     8     3    1
    10     8     9    1
    11     9    10    1
    12    10    11    1
    13    11    13    1
    14    12    13    1
    15    12     8    1
    16    15    18   ar
    17    16    19   ar
    18    17    14   ar
    19    20    22    1
    20    13    14    1
    21     2     6   ar
    22     3     4   ar
    23     5     7   ar
    24    22    23   ar
    25    24    25   ar
    26    26    27   ar
    27    14    18   ar
    28    15    16   ar
    29    17    19   ar
    30    20    21    1
@<TRIPOS>MOLECULE
Molport-020-278-742 MCULE-4235539066 PubChem-110255612
 27 30 0 0 0
SMALL
GASTEIGER

@<TRIPOS>ATOM
      1 C           9.4348   38.3418    2.7817 C.3     1  UNL1        0.0737
      2 C           9.4598   39.0239    4.1014 C.ar    1  UNL1        0.1406
      3 C          10.6907   39.9496    5.8960 C.ar    1  UNL1        0.0644
      4 C           9.5030   40.2864    6.5450 C.ar    1  UNL1        0.0492
      5 C           8.2916   39.9708    5.9304 C.ar    1  UNL1        0.1357
      6 N          10.6475   39.3248    4.6878 N.ar    1  UNL1       -0.2348
      7 N           8.2947   39.3460    4.7212 N.ar    1  UNL1       -0.2159
      8 C          11.9978   40.2770    6.5382 C.3     1  UNL1        0.0602
      9 C          12.1344   39.5608    7.8835 C.3     1  UNL1        0.0094
     10 C          13.4747   39.8991    8.5327 C.3     1  UNL1        0.0219
     11 C          13.5975   41.4084    8.7184 C.3     1  UNL1        0.0922
     12 C          12.1451   41.7880    6.7168 C.3     1  UNL1        0.0981
     13 N          13.3833   42.0754    7.4356 N.pl3   1  UNL1       -0.2916
     14 C          14.3648   42.9635    6.8770 C.ar    1  UNL1        0.1511
     15 C          16.5984   43.7677    6.8198 C.ar    1  UNL1        0.1210
     16 C          16.2525   44.6669    5.8108 C.ar    1  UNL1        0.1196
     17 C          14.0240   43.8694    5.8628 C.ar    1  UNL1        0.1331
     18 N          15.6498   42.9385    7.3291 N.ar    1  UNL1       -0.2259
     19 N          14.9734   44.6982    5.3542 N.ar    1  UNL1       -0.2378
     20 N           7.0661   40.3125    6.5887 N.pl3   1  UNL1       -0.2833
     21 H           6.3999   39.5946    6.6892 H       1  UNL1        0.1550
     22 C           6.7165   41.5983    7.1151 C.ar    1  UNL1        0.1332
     23 C           6.9548   42.7367    6.3403 C.ar    1  UNL1        0.0345
     24 C           6.6173   43.9936    6.8455 C.ar    1  UNL1        0.0045
     25 C           6.0470   44.1028    8.1145 C.ar    1  UNL1        0.0208
     26 C           5.8227   42.9449    8.8615 C.ar    1  UNL1        0.1003
     27 N           6.1586   41.7294    8.3518 N.ar    1  UNL1       -0.2290
@<TRIPOS>BOND
     1     1     2    1
     2     2     7   ar
     3     3     6   ar
     4     4     5   ar
     5     5    20    1
     6    22    27   ar
     7    23    24   ar
     8    25    26   ar
     9     8     3    1
    10     8     9    1
    11     9    10    1
    12    10    11    1
    13    11    13    1
    14    12    13    1
    15    12     8    1
    16    15    18   ar
    17    16    19   ar
    18    17    14   ar
    19    20    22    1
    20    13    14    1
    21     2     6   ar
    22     3     4   ar
    23     5     7   ar
    24    22    23   ar
    25    24    25   ar
    26    26    27   ar
    27    14    18   ar
    28    15    16   ar
    29    17    19   ar
    30    20    21    1
@<TRIPOS>MOLECULE
Molport-020-278-742 MCULE-4235539066 PubChem-110255612
 27 30 0 0 0
SMALL
GASTEIGER

@<TRIPOS>ATOM
      1 C          16.3502   44.8087    6.2096 C.3     1  UNL1        0.0737
      2 C          15.7912   43.6281    6.9177 C.ar    1  UNL1        0.1406
      3 C          13.9461   42.2380    7.4233 C.ar    1  UNL1        0.0644
      4 C          14.7590   41.4420    8.2300 C.ar    1  UNL1        0.0492
      5 C          16.1070   41.7758    8.3583 C.ar    1  UNL1        0.1357
      6 N          14.4763   43.3155    6.7830 N.ar    1  UNL1       -0.2348
      7 N          16.5956   42.8619    7.6996 N.ar    1  UNL1       -0.2159
      8 C          12.5001   41.8987    7.2745 C.3     1  UNL1        0.0602
      9 C          11.7499   42.1395    8.5863 C.3     1  UNL1        0.0094
     10 C          10.2714   41.7923    8.4251 C.3     1  UNL1        0.0219
     11 C          10.1225   40.3389    7.9858 C.3     1  UNL1        0.0922
     12 C          12.3325   40.4494    6.8182 C.3     1  UNL1        0.0981
     13 N          10.9123   40.1126    6.7769 N.pl3   1  UNL1       -0.2916
     14 C          10.3153   39.6038    5.5732 C.ar    1  UNL1        0.1511
     15 C          10.5481   38.5036    3.4817 C.ar    1  UNL1        0.1210
     16 C           9.1764   38.6273    3.2600 C.ar    1  UNL1        0.1196
     17 C           8.9376   39.7248    5.3441 C.ar    1  UNL1        0.1331
     18 N          11.0857   38.9930    4.6299 N.ar    1  UNL1       -0.2259
     19 N           8.4010   39.2349    4.1956 N.ar    1  UNL1       -0.2378
     20 N          16.9504   40.9645    9.1845 N.pl3   1  UNL1       -0.2833
     21 H          17.9137   41.1672    9.1714 H       1  UNL1        0.1550
     22 C          16.5271   39.8866   10.0280 C.ar    1  UNL1        0.1332
     23 C          17.4886   39.0237   10.5610 C.ar    1  UNL1        0.0345
     24 C          17.0849   37.9707   11.3838 C.ar    1  UNL1        0.0045
     25 C          15.7304   37.7890   11.6665 C.ar    1  UNL1        0.0208
     26 C          14.7967   38.6697   11.1174 C.ar    1  UNL1        0.1003
     27 N          15.2099   39.6895   10.3178 N.ar    1  UNL1       -0.2290
@<TRIPOS>BOND
     1     1     2    1
     2     2     7   ar
     3     3     6   ar
     4     4     5   ar
     5     5    20    1
     6    22    27   ar
     7    23    24   ar
     8    25    26   ar
     9     8     3    1
    10     8     9    1
    11     9    10    1
    12    10    11    1
    13    11    13    1
    14    12    13    1
    15    12     8    1
    16    15    18   ar
    17    16    19   ar
    18    17    14   ar
    19    20    22    1
    20    13    14    1
    21     2     6   ar
    22     3     4   ar
    23     5     7   ar
    24    22    23   ar
    25    24    25   ar
    26    26    27   ar
    27    14    18   ar
    28    15    16   ar
    29    17    19   ar
    30    20    21    1
@<TRIPOS>MOLECULE
Molport-020-278-742 MCULE-4235539066 PubChem-110255612
 27 30 0 0 0
SMALL
GASTEIGER

@<TRIPOS>ATOM
      1 C           9.2463   41.2278   13.8806 C.3     1  UNL1        0.0737
      2 C           8.8188   41.3197   12.4606 C.ar    1  UNL1        0.1406
      3 C           9.3301   41.1255   10.1599 C.ar    1  UNL1        0.0644
      4 C           8.0245   41.4910    9.8326 C.ar    1  UNL1        0.0492
      5 C           7.1283   41.7679   10.8645 C.ar    1  UNL1        0.1357
      6 N           9.7031   41.0471   11.4664 N.ar    1  UNL1       -0.2348
      7 N           7.5435   41.6766   12.1574 N.ar    1  UNL1       -0.2159
      8 C          10.3052   40.8270    9.0699 C.3     1  UNL1        0.0602
      9 C          10.1769   39.3726    8.6122 C.3     1  UNL1        0.0094
     10 C          11.1760   39.0760    7.4958 C.3     1  UNL1        0.0219
     11 C          12.5955   39.3589    7.9783 C.3     1  UNL1        0.0922
     12 C          11.7328   41.1211    9.5308 C.3     1  UNL1        0.0981
     13 N          12.6733   40.7275    8.4854 N.pl3   1  UNL1       -0.2916
     14 C          13.6201   41.6714    7.9594 C.ar    1  UNL1        0.1511
     15 C          15.8671   42.4068    7.7374 C.ar    1  UNL1        0.1210
     16 C          15.4420   43.4807    6.9550 C.ar    1  UNL1        0.1196
     17 C          13.1997   42.7528    7.1724 C.ar    1  UNL1        0.1331
     18 N          14.9496   41.5286    8.2208 N.ar    1  UNL1       -0.2259
     19 N          14.1182   43.6304    6.6894 N.ar    1  UNL1       -0.2378
     20 N           5.7849   42.1441   10.5389 N.pl3   1  UNL1       -0.2833
     21 H           5.0656   41.7228   11.0626 H       1  UNL1        0.1550
     22 C           5.3875   43.0745    9.5245 C.ar    1  UNL1        0.1332
     23 C           6.3544   43.5826    8.6527 C.ar    1  UNL1        0.0345
     24 C           5.9759   44.4897    7.6614 C.ar    1  UNL1        0.0045
     25 C           4.6408   44.8802    7.5493 C.ar    1  UNL1        0.0208
     26 C           3.7009   44.3530    8.4368 C.ar    1  UNL1        0.1003
     27 N           4.0895   43.4705    9.3961 N.ar    1  UNL1       -0.2290
@<TRIPOS>BOND
     1     1     2    1
     2     2     7   ar
     3     3     6   ar
     4     4     5   ar
     5     5    20    1
     6    22    27   ar
     7    23    24   ar
     8    25    26   ar
     9     8     3    1
    10     8     9    1
    11     9    10    1
    12    10    11    1
    13    11    13    1
    14    12    13    1
    15    12     8    1
    16    15    18   ar
    17    16    19   ar
    18    17    14   ar
    19    20    22    1
    20    13    14    1
    21     2     6   ar
    22     3     4   ar
    23     5     7   ar
    24    22    23   ar
    25    24    25   ar
    26    26    27   ar
    27    14    18   ar
    28    15    16   ar
    29    17    19   ar
    30    20    21    1
@<TRIPOS>MOLECULE
Molport-020-278-742 MCULE-4235539066 PubChem-110255612
 27 30 0 0 0
SMALL
GASTEIGER

@<TRIPOS>ATOM
      1 C          13.8171   39.2866   11.1503 C.3     1  UNL1        0.0737
      2 C          12.9985   40.1824   10.2930 C.ar    1  UNL1        0.1406
      3 C          11.0229   41.4380    9.9564 C.ar    1  UNL1        0.0644
      4 C          11.4850   41.8407    8.7035 C.ar    1  UNL1        0.0492
      5 C          12.7307   41.3863    8.2718 C.ar    1  UNL1        0.1357
      6 N          11.7870   40.6168   10.7271 N.ar    1  UNL1       -0.2348
      7 N          13.4621   40.5665    9.0752 N.ar    1  UNL1       -0.2159
      8 C           9.6911   41.9117   10.4360 C.3     1  UNL1        0.0602
      9 C           9.3838   41.3473   11.8247 C.3     1  UNL1        0.0094
     10 C           8.0212   41.8382   12.3090 C.3     1  UNL1        0.0219
     11 C           6.9371   41.4293   11.3165 C.3     1  UNL1        0.0922
     12 C           8.5941   41.5247    9.4443 C.3     1  UNL1        0.0981
     13 N           7.2924   41.9097    9.9826 N.pl3   1  UNL1       -0.2916
     14 C           6.4104   42.7574    9.2292 C.ar    1  UNL1        0.1511
     15 C           4.2499   43.6883    8.9058 C.ar    1  UNL1        0.1210
     16 C           4.7119   44.3807    7.7863 C.ar    1  UNL1        0.1196
     17 C           6.8683   43.4560    8.1033 C.ar    1  UNL1        0.1331
     18 N           5.1067   42.8944    9.6004 N.ar    1  UNL1       -0.2259
     19 N           6.0106   44.2498    7.4095 N.ar    1  UNL1       -0.2378
     20 N          13.2144   41.7942    6.9866 N.pl3   1  UNL1       -0.2833
     21 H          12.8420   41.3290    6.2029 H       1  UNL1        0.1550
     22 C          14.1878   42.8140    6.7317 C.ar    1  UNL1        0.1332
     23 C          15.4765   42.6678    7.2523 C.ar    1  UNL1        0.0345
     24 C          16.4313   43.6567    7.0090 C.ar    1  UNL1        0.0045
     25 C          16.0928   44.7786    6.2510 C.ar    1  UNL1        0.0208
     26 C          14.7963   44.8926    5.7461 C.ar    1  UNL1        0.1003
     27 N          13.8801   43.9183    5.9944 N.ar    1  UNL1       -0.2290
@<TRIPOS>BOND
     1     1     2    1
     2     2     7   ar
     3     3     6   ar
     4     4     5   ar
     5     5    20    1
     6    22    27   ar
     7    23    24   ar
     8    25    26   ar
     9     8     3    1
    10     8     9    1
    11     9    10    1
    12    10    11    1
    13    11    13    1
    14    12    13    1
    15    12     8    1
    16    15    18   ar
    17    16    19   ar
    18    17    14   ar
    19    20    22    1
    20    13    14    1
    21     2     6   ar
    22     3     4   ar
    23     5     7   ar
    24    22    23   ar
    25    24    25   ar
    26    26    27   ar
    27    14    18   ar
    28    15    16   ar
    29    17    19   ar
    30    20    21    1
@<TRIPOS>MOLECULE
Molport-020-278-742 MCULE-4235539066 PubChem-110255612
 27 30 0 0 0
SMALL
GASTEIGER

@<TRIPOS>ATOM
      1 C          14.8056   44.0321    5.8880 C.3     1  UNL1        0.0737
      2 C          14.8636   42.9547    6.9095 C.ar    1  UNL1        0.1406
      3 C          13.7611   41.3179    8.2125 C.ar    1  UNL1        0.0644
      4 C          14.9741   40.9607    8.8012 C.ar    1  UNL1        0.0492
      5 C          16.1313   41.6344    8.4115 C.ar    1  UNL1        0.1357
      6 N          13.7280   42.3075    7.2789 N.ar    1  UNL1       -0.2348
      7 N          16.0525   42.6176    7.4737 N.ar    1  UNL1       -0.2159
      8 C          12.5108   40.6102    8.6174 C.3     1  UNL1        0.0602
      9 C          12.8215   39.4868    9.6089 C.3     1  UNL1        0.0094
     10 C          11.5374   38.7695   10.0197 C.3     1  UNL1        0.0219
     11 C          10.8350   38.2111    8.7858 C.3     1  UNL1        0.0922
     12 C          11.7847   40.0581    7.3907 C.3     1  UNL1        0.0981
     13 N          10.6214   39.2864    7.8192 N.pl3   1  UNL1       -0.2916
     14 C           9.3106   39.6017    7.3228 C.ar    1  UNL1        0.1511
     15 C           7.3216   40.8901    7.4740 C.ar    1  UNL1        0.1210
     16 C           6.7933   40.2098    6.3766 C.ar    1  UNL1        0.1196
     17 C           8.7738   38.9219    6.2204 C.ar    1  UNL1        0.1331
     18 N           8.5647   40.5720    7.9215 N.ar    1  UNL1       -0.2259
     19 N           7.5305   39.2409    5.7737 N.ar    1  UNL1       -0.2378
     20 N          17.3821   41.2750    9.0101 N.pl3   1  UNL1       -0.2833
     21 H          18.1021   41.9454    8.9728 H       1  UNL1        0.1550
     22 C          17.6863   40.0339    9.6579 C.ar    1  UNL1        0.1332
     23 C          16.8271   39.5586   10.6524 C.ar    1  UNL1        0.0345
     24 C          17.1160   38.3502   11.2889 C.ar    1  UNL1        0.0045
     25 C          18.2553   37.6294   10.9285 C.ar    1  UNL1        0.0208
     26 C          19.0919   38.1334    9.9309 C.ar    1  UNL1        0.1003
     27 N          18.7934   39.3128    9.3227 N.ar    1  UNL1       -0.2290
@<TRIPOS>BOND
     1     1     2    1
     2     2     7   ar
     3     3     6   ar
     4     4     5   ar
     5     5    20    1
     6    22    27   ar
     7    23    24   ar
     8    25    26   ar
     9     8     3    1
    10     8     9    1
    11     9    10    1
    12    10    11    1
    13    11    13    1
    14    12    13    1
    15    12     8    1
    16    15    18   ar
    17    16    19   ar
    18    17    14   ar
    19    20    22    1
    20    13    14    1
    21     2     6   ar
    22     3     4   ar
    23     5     7   ar
    24    22    23   ar
    25    24    25   ar
    26    26    27   ar
    27    14    18   ar
    28    15    16   ar
    29    17    19   ar
    30    20    21    1
@<TRIPOS>MOLECULE
Molport-020-278-742 MCULE-4235539066 PubChem-110255612
 27 30 0 0 0
SMALL
GASTEIGER

@<TRIPOS>ATOM
      1 C           9.2330   41.0996   14.1506 C.3     1  UNL1        0.0737
      2 C           9.1218   41.2795   12.6799 C.ar    1  UNL1        0.1406
      3 C          10.0163   40.9663   10.5132 C.ar    1  UNL1        0.0644
      4 C           8.9134   41.6143    9.9575 C.ar    1  UNL1        0.0492
      5 C           7.9168   42.0895   10.8095 C.ar    1  UNL1        0.1357
      6 N          10.1005   40.8113   11.8627 N.ar    1  UNL1       -0.2348
      7 N           8.0413   41.9125   12.1532 N.ar    1  UNL1       -0.2159
      8 C          11.0948   40.4521    9.6185 C.3     1  UNL1        0.0602
      9 C          11.0587   38.9238    9.5502 C.3     1  UNL1        0.0094
     10 C          12.1632   38.4060    8.6315 C.3     1  UNL1        0.0219
     11 C          13.5232   38.8845    9.1308 C.3     1  UNL1        0.0922
     12 C          12.4643   40.9361   10.0948 C.3     1  UNL1        0.0981
     13 N          13.5076   40.3398    9.2652 N.pl3   1  UNL1       -0.2916
     14 C          14.4642   41.1679    8.5845 C.ar    1  UNL1        0.1511
     15 C          16.6835   41.9890    8.3854 C.ar    1  UNL1        0.1210
     16 C          16.3043   42.7569    7.2841 C.ar    1  UNL1        0.1196
     17 C          14.0898   41.9420    7.4773 C.ar    1  UNL1        0.1331
     18 N          15.7579   41.2139    9.0093 N.ar    1  UNL1       -0.2259
     19 N          15.0163   42.7167    6.8539 N.ar    1  UNL1       -0.2378
     20 N           6.7799   42.7566   10.2486 N.pl3   1  UNL1       -0.2833
     21 H           6.9159   43.6797    9.9346 H       1  UNL1        0.1550
     22 C           5.4640   42.2097   10.1007 C.ar    1  UNL1        0.1332
     23 C           4.4865   42.9612    9.4427 C.ar    1  UNL1        0.0345
     24 C           3.2016   42.4361    9.2942 C.ar    1  UNL1        0.0045
     25 C           2.9048   41.1704    9.8015 C.ar    1  UNL1        0.0208
     26 C           3.9051   40.4469   10.4533 C.ar    1  UNL1        0.1003
     27 N           5.1509   40.9759   10.5881 N.ar    1  UNL1       -0.2290
@<TRIPOS>BOND
     1     1     2    1
     2     2     7   ar
     3     3     6   ar
     4     4     5   ar
     5     5    20    1
     6    22    27   ar
     7    23    24   ar
     8    25    26   ar
     9     8     3    1
    10     8     9    1
    11     9    10    1
    12    10    11    1
    13    11    13    1
    14    12    13    1
    15    12     8    1
    16    15    18   ar
    17    16    19   ar
    18    17    14   ar
    19    20    22    1
    20    13    14    1
    21     2     6   ar
    22     3     4   ar
    23     5     7   ar
    24    22    23   ar
    25    24    25   ar
    26    26    27   ar
    27    14    18   ar
    28    15    16   ar
    29    17    19   ar
    30    20    21    1
@<TRIPOS>MOLECULE
Molport-020-278-742 MCULE-4235539066 PubChem-110255612
 27 30 0 0 0
SMALL
GASTEIGER

@<TRIPOS>ATOM
      1 C          11.7170   40.3363   10.9626 C.3     1  UNL1        0.0737
      2 C          11.3246   40.8551    9.6267 C.ar    1  UNL1        0.1406
      3 C           9.6414   41.5975    8.1407 C.ar    1  UNL1        0.0644
      4 C          10.6013   41.8153    7.1525 C.ar    1  UNL1        0.0492
      5 C          11.9365   41.5371    7.4434 C.ar    1  UNL1        0.1357
      6 N          10.0201   41.1215    9.3581 N.ar    1  UNL1       -0.2348
      7 N          12.2710   41.0627    8.6744 N.ar    1  UNL1       -0.2159
      8 C           8.2066   41.8872    7.8486 C.3     1  UNL1        0.0602
      9 C           8.0670   42.6612    6.5360 C.3     1  UNL1        0.0094
     10 C           6.5966   42.9517    6.2433 C.3     1  UNL1        0.0219
     11 C           5.9823   43.7417    7.3949 C.3     1  UNL1        0.0922
     12 C           7.5701   42.6646    9.0007 C.3     1  UNL1        0.0981
     13 N           6.1987   43.0221    8.6486 N.pl3   1  UNL1       -0.2916
     14 C           5.1033   42.6480    9.4994 C.ar    1  UNL1        0.1511
     15 C           4.3171   41.5968   11.4783 C.ar    1  UNL1        0.1210
     16 C           3.0052   41.9248   11.1355 C.ar    1  UNL1        0.1196
     17 C           3.7826   42.9745    9.1609 C.ar    1  UNL1        0.1331
     18 N           5.3340   41.9644   10.6552 N.ar    1  UNL1       -0.2259
     19 N           2.7664   42.6064    9.9849 N.ar    1  UNL1       -0.2378
     20 N          12.9301   41.7574    6.4352 N.pl3   1  UNL1       -0.2833
     21 H          12.9018   41.1688    5.6466 H       1  UNL1        0.1550
     22 C          13.9609   42.7519    6.4641 C.ar    1  UNL1        0.1332
     23 C          15.1258   42.5014    7.1944 C.ar    1  UNL1        0.0345
     24 C          16.1353   43.4650    7.2280 C.ar    1  UNL1        0.0045
     25 C          15.9740   44.6655    6.5350 C.ar    1  UNL1        0.0208
     26 C          14.7976   44.8830    5.8155 C.ar    1  UNL1        0.1003
     27 N          13.8255   43.9318    5.7952 N.ar    1  UNL1       -0.2290
@<TRIPOS>BOND
     1     1     2    1
     2     2     7   ar
     3     3     6   ar
     4     4     5   ar
     5     5    20    1
     6    22    27   ar
     7    23    24   ar
     8    25    26   ar
     9     8     3    1
    10     8     9    1
    11     9    10    1
    12    10    11    1
    13    11    13    1
    14    12    13    1
    15    12     8    1
    16    15    18   ar
    17    16    19   ar
    18    17    14   ar
    19    20    22    1
    20    13    14    1
    21     2     6   ar
    22     3     4   ar
    23     5     7   ar
    24    22    23   ar
    25    24    25   ar
    26    26    27   ar
    27    14    18   ar
    28    15    16   ar
    29    17    19   ar
    30    20    21    1
@<TRIPOS>MOLECULE
Molport-020-278-742 MCULE-4235539066 PubChem-110255612
 27 30 0 0 0
SMALL
GASTEIGER

@<TRIPOS>ATOM
      1 C          15.9674   44.4051    5.9226 C.3     1  UNL1        0.0737
      2 C          15.6978   43.2918    6.8690 C.ar    1  UNL1        0.1406
      3 C          14.1749   41.7702    7.8478 C.ar    1  UNL1        0.0644
      4 C          15.2018   41.2310    8.6223 C.ar    1  UNL1        0.0492
      5 C          16.4866   41.7571    8.4903 C.ar    1  UNL1        0.1357
      6 N          14.4412   42.7899    6.9866 N.ar    1  UNL1       -0.2348
      7 N          16.7085   42.7767    7.6165 N.ar    1  UNL1       -0.2159
      8 C          12.7922   41.2225    7.9757 C.3     1  UNL1        0.0602
      9 C          12.2425   40.8155    6.6069 C.3     1  UNL1        0.0094
     10 C          10.8290   40.2542    6.7466 C.3     1  UNL1        0.0219
     11 C           9.9191   41.2907    7.3989 C.3     1  UNL1        0.0922
     12 C          11.8699   42.2426    8.6431 C.3     1  UNL1        0.0981
     13 N          10.5050   41.7240    8.6659 N.pl3   1  UNL1       -0.2916
     14 C           9.7819   41.6201    9.9030 C.ar    1  UNL1        0.1511
     15 C           7.7361   41.7896   11.0966 C.ar    1  UNL1        0.1210
     16 C           8.3889   41.4251   12.2743 C.ar    1  UNL1        0.1196
     17 C          10.4318   41.2543   11.0901 C.ar    1  UNL1        0.1331
     18 N           8.4448   41.8789    9.9405 N.ar    1  UNL1       -0.2259
     19 N           9.7221   41.1652   12.2457 N.ar    1  UNL1       -0.2378
     20 N          17.5484   41.2102    9.2814 N.pl3   1  UNL1       -0.2833
     21 H          18.3225   41.7942    9.4516 H       1  UNL1        0.1550
     22 C          17.5922   39.8954    9.8486 C.ar    1  UNL1        0.1332
     23 C          16.4973   39.4375   10.5866 C.ar    1  UNL1        0.0345
     24 C          16.5316   38.1576   11.1430 C.ar    1  UNL1        0.0045
     25 C          17.6540   37.3490   10.9585 C.ar    1  UNL1        0.0208
     26 C          18.7302   37.8380   10.2157 C.ar    1  UNL1        0.1003
     27 N          18.6777   39.0880    9.6818 N.ar    1  UNL1       -0.2290
@<TRIPOS>BOND
     1     1     2    1
     2     2     7   ar
     3     3     6   ar
     4     4     5   ar
     5     5    20    1
     6    22    27   ar
     7    23    24   ar
     8    25    26   ar
     9     8     3    1
    10     8     9    1
    11     9    10    1
    12    10    11    1
    13    11    13    1
    14    12    13    1
    15    12     8    1
    16    15    18   ar
    17    16    19   ar
    18    17    14   ar
    19    20    22    1
    20    13    14    1
    21     2     6   ar
    22     3     4   ar
    23     5     7   ar
    24    22    23   ar
    25    24    25   ar
    26    26    27   ar
    27    14    18   ar
    28    15    16   ar
    29    17    19   ar
    30    20    21    1
