@<TRIPOS>MOLECULE
MolPort-006-609-966 ChemDiv-V013-5734 MCULE-3113320894 PubChem-46070050 ZINC000034735461 ZINC34735461
 34 37 0 0 0
SMALL
GASTEIGER

@<TRIPOS>ATOM
      1 C          11.3141   40.7274   10.4023 C.ar    1  UNL1        0.0565
      2 C          12.0585   39.7794   11.1259 C.ar    1  UNL1        0.0150
      3 C          13.3972   39.5311   10.8131 C.ar    1  UNL1        0.0026
      4 C          14.0121   40.2350    9.7771 C.ar    1  UNL1        0.0148
      5 C          13.2941   41.1955    9.0508 C.ar    1  UNL1        0.0516
      6 C          11.9532   41.4334    9.3694 C.ar    1  UNL1        0.0296
      7 C           7.4370   42.1931   11.4613 C.3     1  UNL1        0.0971
      8 C           8.1059   41.2552   12.4492 C.3     1  UNL1        0.0435
      9 C           9.6086   41.2005   12.1709 C.3     1  UNL1        0.1015
     10 C           8.8994   41.1289    9.7457 C.2     1  UNL1        0.3112
     11 O           9.0929   40.7382    8.5609 O.2     1  UNL1       -0.2520
     12 N           7.6236   41.6738   10.1148 N.am    1  UNL1       -0.2596
     13 N           9.9345   40.9916   10.7492 N.am    1  UNL1       -0.2430
     14 C           6.4747   41.5939    9.2190 C.3     1  UNL1        0.1217
     15 C           2.8382   41.7933   11.5051 C.ar    1  UNL1        0.1387
     16 C           3.7428   40.7370   11.7008 C.ar    1  UNL1        0.0366
     17 C           4.9205   40.6703   10.9503 C.ar    1  UNL1        0.0005
     18 C           5.2013   41.6545    9.9975 C.ar    1  UNL1       -0.0021
     19 C           4.3059   42.7109    9.8029 C.ar    1  UNL1        0.0005
     20 C           3.1275   42.7776   10.5533 C.ar    1  UNL1        0.0366
     21 C           1.4020   42.9389   13.1647 C.3     1  UNL1        0.2525
     22 O           1.6513   41.8886   12.2380 O.3     1  UNL1       -0.4714
     23 C          13.3862   42.1193    6.6614 C.2     1  UNL1        0.2305
     24 O          12.3171   41.5612    6.2955 O.2     1  UNL1       -0.2744
     25 N          13.8946   41.9519    7.9913 N.am    1  UNL1       -0.2836
     26 H          14.7446   42.4033    8.1986 H       1  UNL1        0.1549
     27 C          14.1285   42.9878    5.7041 C.3     1  UNL1        0.1116
     28 C          15.4560   43.3729    6.2643 C.ar    1  UNL1       -0.0129
     29 C          16.3730   44.0844    5.4801 C.ar    1  UNL1       -0.0015
     30 C          17.6223   44.4288    6.0063 C.ar    1  UNL1        0.0293
     31 C          17.9583   44.0609    7.3139 C.ar    1  UNL1        0.1401
     32 C          17.0425   43.3504    8.0976 C.ar    1  UNL1        0.0293
     33 C          15.7933   43.0048    7.5727 C.ar    1  UNL1       -0.0015
     34 F          19.1688   44.3958    7.8218 F       1  UNL1       -0.2042
@<TRIPOS>BOND
     1    21    22    1
     2    15    22    1
     3    16    17   ar
     4    18    19   ar
     5    14    18    1
     6    14    12    1
     7     7    12    1
     8     7     8    1
     9     8     9    1
    10     9    13    1
    11    10    12   am
    12     2     3   ar
    13     4     5   ar
    14     5    25    1
    15    27    23    1
    16    27    28    1
    17    29    30   ar
    18    31    34    1
    19    31    32   ar
    20    33    28   ar
    21     6     1   ar
    22    20    15   ar
    23    13    10   am
    24    13     1    1
    25    25    23   am
    26    15    16   ar
    27    17    18   ar
    28    10    11    2
    29     1     2   ar
    30     3     4   ar
    31     5     6   ar
    32    23    24    2
    33    28    29   ar
    34    30    31   ar
    35    32    33   ar
    36    19    20   ar
    37    25    26    1
@<TRIPOS>MOLECULE
MolPort-006-609-966 ChemDiv-V013-5734 MCULE-3113320894 PubChem-46070050 ZINC000034735461 ZINC34735461
 34 37 0 0 0
SMALL
GASTEIGER

@<TRIPOS>ATOM
      1 C           9.5813   39.3700    7.4396 C.ar    1  UNL1        0.0565
      2 C           9.5134   38.8859    6.1215 C.ar    1  UNL1        0.0150
      3 C           8.4339   39.2085    5.2956 C.ar    1  UNL1        0.0026
      4 C           7.4114   40.0281    5.7749 C.ar    1  UNL1        0.0148
      5 C           7.4643   40.5346    7.0811 C.ar    1  UNL1        0.0516
      6 C           8.5474   40.2020    7.9010 C.ar    1  UNL1        0.0296
      7 C          13.2309   38.1681    9.3202 C.3     1  UNL1        0.0971
      8 C          11.9655   37.4616    9.7705 C.3     1  UNL1        0.0435
      9 C          10.8692   37.6500    8.7211 C.3     1  UNL1        0.1015
     10 C          11.7229   40.0273    8.6247 C.2     1  UNL1        0.3112
     11 O          11.5084   41.2602    8.4584 O.2     1  UNL1       -0.2520
     12 N          12.9619   39.5936    9.2057 N.am    1  UNL1       -0.2596
     13 N          10.7147   39.0469    8.2787 N.am    1  UNL1       -0.2430
     14 C          13.8934   40.5425    9.8064 C.3     1  UNL1        0.1217
     15 C          15.7854   42.9518    6.7888 C.ar    1  UNL1        0.1387
     16 C          14.4130   42.6644    6.7105 C.ar    1  UNL1        0.0366
     17 C          13.8021   41.8740    7.6887 C.ar    1  UNL1        0.0005
     18 C          14.5570   41.3623    8.7488 C.ar    1  UNL1       -0.0021
     19 C          15.9229   41.6502    8.8335 C.ar    1  UNL1        0.0005
     20 C          16.5342   42.4406    7.8549 C.ar    1  UNL1        0.0366
     21 C          17.8299   43.6803    5.5978 C.3     1  UNL1        0.2525
     22 O          16.4270   43.7377    5.8267 O.3     1  UNL1       -0.4714
     23 C           6.5023   42.8204    7.7297 C.2     1  UNL1        0.2305
     24 O           7.5302   43.4640    7.3870 O.2     1  UNL1       -0.2744
     25 N           6.4428   41.3936    7.6047 N.am    1  UNL1       -0.2836
     26 H           5.6143   40.9582    7.9100 H       1  UNL1        0.1549
     27 C           5.3158   43.5534    8.2556 C.3     1  UNL1        0.1116
     28 C           4.7222   42.8289    9.4162 C.ar    1  UNL1       -0.0129
     29 C           3.3350   42.8257    9.6111 C.ar    1  UNL1       -0.0015
     30 C           2.7860   42.1574   10.7103 C.ar    1  UNL1        0.0293
     31 C           3.6207   41.4947   11.6169 C.ar    1  UNL1        0.1401
     32 C           5.0063   41.4974   11.4224 C.ar    1  UNL1        0.0293
     33 C           5.5568   42.1657   10.3242 C.ar    1  UNL1       -0.0015
     34 F           3.0868   40.8476   12.6808 F       1  UNL1       -0.2042
@<TRIPOS>BOND
     1    21    22    1
     2    15    22    1
     3    16    17   ar
     4    18    19   ar
     5    14    18    1
     6    14    12    1
     7     7    12    1
     8     7     8    1
     9     8     9    1
    10     9    13    1
    11    10    12   am
    12     2     3   ar
    13     4     5   ar
    14     5    25    1
    15    27    23    1
    16    27    28    1
    17    29    30   ar
    18    31    34    1
    19    31    32   ar
    20    33    28   ar
    21     6     1   ar
    22    20    15   ar
    23    13    10   am
    24    13     1    1
    25    25    23   am
    26    15    16   ar
    27    17    18   ar
    28    10    11    2
    29     1     2   ar
    30     3     4   ar
    31     5     6   ar
    32    23    24    2
    33    28    29   ar
    34    30    31   ar
    35    32    33   ar
    36    19    20   ar
    37    25    26    1
@<TRIPOS>MOLECULE
MolPort-006-609-966 ChemDiv-V013-5734 MCULE-3113320894 PubChem-46070050 ZINC000034735461 ZINC34735461
 34 37 0 0 0
SMALL
GASTEIGER

@<TRIPOS>ATOM
      1 C          13.4775   37.3475   10.1929 C.ar    1  UNL1        0.0565
      2 C          13.0676   36.2248   10.9329 C.ar    1  UNL1        0.0150
      3 C          11.7315   35.8168   10.9329 C.ar    1  UNL1        0.0026
      4 C          10.7884   36.5220   10.1845 C.ar    1  UNL1        0.0148
      5 C          11.1761   37.6363    9.4271 C.ar    1  UNL1        0.0516
      6 C          12.5154   38.0388    9.4375 C.ar    1  UNL1        0.0296
      7 C          17.5650   38.3803    9.4668 C.3     1  UNL1        0.0971
      8 C          17.3112   37.2162   10.4067 C.3     1  UNL1        0.0435
      9 C          15.8910   36.6879   10.2005 C.3     1  UNL1        0.1015
     10 C          15.2702   39.1354   10.0821 C.2     1  UNL1        0.3112
     11 O          14.4421   40.0649   10.2921 O.2     1  UNL1       -0.2520
     12 N          16.6376   39.4558    9.7844 N.am    1  UNL1       -0.2596
     13 N          14.8677   37.7480   10.1833 N.am    1  UNL1       -0.2430
     14 C          17.1484   40.8151    9.9265 C.3     1  UNL1        0.1217
     15 C          15.5528   43.3655    6.8541 C.ar    1  UNL1        0.1387
     16 C          14.8546   42.2149    7.2552 C.ar    1  UNL1        0.0366
     17 C          15.3797   41.3830    8.2487 C.ar    1  UNL1        0.0005
     18 C          16.6062   41.6916    8.8455 C.ar    1  UNL1       -0.0021
     19 C          17.3024   42.8391    8.4528 C.ar    1  UNL1        0.0005
     20 C          16.7774   43.6712    7.4587 C.ar    1  UNL1        0.0366
     21 C          15.4911   45.5640    5.7176 C.3     1  UNL1        0.2525
     22 O          15.0561   44.2174    5.8628 O.3     1  UNL1       -0.4714
     23 C          10.1173   39.8028    8.5573 C.2     1  UNL1        0.2305
     24 O          10.8537   40.5591    9.2457 O.2     1  UNL1       -0.2744
     25 N          10.2410   38.3765    8.6315 N.am    1  UNL1       -0.2836
     26 H           9.6190   37.8506    8.0786 H       1  UNL1        0.1549
     27 C           9.1120   40.3974    7.6313 C.3     1  UNL1        0.1116
     28 C           7.9334   40.9054    8.3909 C.ar    1  UNL1       -0.0129
     29 C           6.6599   40.8939    7.8076 C.ar    1  UNL1       -0.0015
     30 C           5.5613   41.3863    8.5196 C.ar    1  UNL1        0.0293
     31 C           5.7333   41.8930    9.8125 C.ar    1  UNL1        0.1401
     32 C           7.0051   41.9045   10.3957 C.ar    1  UNL1        0.0293
     33 C           8.1046   41.4131    9.6848 C.ar    1  UNL1       -0.0015
     34 F           4.6677   42.3691   10.5006 F       1  UNL1       -0.2042
@<TRIPOS>BOND
     1    21    22    1
     2    15    22    1
     3    16    17   ar
     4    18    19   ar
     5    14    18    1
     6    14    12    1
     7     7    12    1
     8     7     8    1
     9     8     9    1
    10     9    13    1
    11    10    12   am
    12     2     3   ar
    13     4     5   ar
    14     5    25    1
    15    27    23    1
    16    27    28    1
    17    29    30   ar
    18    31    34    1
    19    31    32   ar
    20    33    28   ar
    21     6     1   ar
    22    20    15   ar
    23    13    10   am
    24    13     1    1
    25    25    23   am
    26    15    16   ar
    27    17    18   ar
    28    10    11    2
    29     1     2   ar
    30     3     4   ar
    31     5     6   ar
    32    23    24    2
    33    28    29   ar
    34    30    31   ar
    35    32    33   ar
    36    19    20   ar
    37    25    26    1
@<TRIPOS>MOLECULE
MolPort-006-609-966 ChemDiv-V013-5734 MCULE-3113320894 PubChem-46070050 ZINC000034735461 ZINC34735461
 34 37 0 0 0
SMALL
GASTEIGER

@<TRIPOS>ATOM
      1 C          15.5770   41.8303    8.0828 C.ar    1  UNL1        0.0565
      2 C          16.3369   42.9900    7.8507 C.ar    1  UNL1        0.0150
      3 C          15.8820   43.9803    6.9766 C.ar    1  UNL1        0.0026
      4 C          14.6554   43.8274    6.3292 C.ar    1  UNL1        0.0148
      5 C          13.8734   42.6860    6.5559 C.ar    1  UNL1        0.0516
      6 C          14.3400   41.6988    7.4298 C.ar    1  UNL1        0.0296
      7 C          16.9072   39.3576   11.3105 C.3     1  UNL1        0.0971
      8 C          17.9069   39.6297   10.2016 C.3     1  UNL1        0.0435
      9 C          17.4673   40.8564    9.4014 C.3     1  UNL1        0.1015
     10 C          15.1597   39.8440    9.6005 C.2     1  UNL1        0.3112
     11 O          14.0089   39.6426    9.1219 O.2     1  UNL1       -0.2520
     12 N          15.6112   39.0636   10.7177 N.am    1  UNL1       -0.2596
     13 N          16.0481   40.8214    9.0067 N.am    1  UNL1       -0.2430
     14 C          14.8652   37.8992   11.1830 C.3     1  UNL1        0.1217
     15 C          15.3816   34.6226    8.4467 C.ar    1  UNL1        0.1387
     16 C          14.1794   34.7715    9.1572 C.ar    1  UNL1        0.0366
     17 C          14.0173   35.8331   10.0523 C.ar    1  UNL1        0.0005
     18 C          15.0545   36.7506   10.2471 C.ar    1  UNL1       -0.0021
     19 C          16.2515   36.6091    9.5380 C.ar    1  UNL1        0.0005
     20 C          16.4139   35.5469    8.6427 C.ar    1  UNL1        0.0366
     21 C          16.1878   33.7525    6.2737 C.3     1  UNL1        0.2525
     22 O          15.5763   33.5716    7.5454 O.3     1  UNL1       -0.4714
     23 C          11.4151   41.9599    6.5234 C.2     1  UNL1        0.2305
     24 O          11.4104   41.5638    7.7197 O.2     1  UNL1       -0.2744
     25 N          12.6001   42.5000    5.9239 N.am    1  UNL1       -0.2836
     26 H          12.5324   42.7713    4.9799 H       1  UNL1        0.1549
     27 C          10.1625   41.8876    5.7188 C.3     1  UNL1        0.1116
     28 C          10.0480   40.5634    5.0422 C.ar    1  UNL1       -0.0129
     29 C           8.9821   39.7065    5.3448 C.ar    1  UNL1       -0.0015
     30 C           8.8892   38.4595    4.7182 C.ar    1  UNL1        0.0293
     31 C           9.8612   38.0658    3.7919 C.ar    1  UNL1        0.1401
     32 C          10.9259   38.9216    3.4891 C.ar    1  UNL1        0.0293
     33 C          11.0205   40.1684    4.1152 C.ar    1  UNL1       -0.0015
     34 F           9.7692   36.8576    3.1858 F       1  UNL1       -0.2042
@<TRIPOS>BOND
     1    21    22    1
     2    15    22    1
     3    16    17   ar
     4    18    19   ar
     5    14    18    1
     6    14    12    1
     7     7    12    1
     8     7     8    1
     9     8     9    1
    10     9    13    1
    11    10    12   am
    12     2     3   ar
    13     4     5   ar
    14     5    25    1
    15    27    23    1
    16    27    28    1
    17    29    30   ar
    18    31    34    1
    19    31    32   ar
    20    33    28   ar
    21     6     1   ar
    22    20    15   ar
    23    13    10   am
    24    13     1    1
    25    25    23   am
    26    15    16   ar
    27    17    18   ar
    28    10    11    2
    29     1     2   ar
    30     3     4   ar
    31     5     6   ar
    32    23    24    2
    33    28    29   ar
    34    30    31   ar
    35    32    33   ar
    36    19    20   ar
    37    25    26    1
@<TRIPOS>MOLECULE
MolPort-006-609-966 ChemDiv-V013-5734 MCULE-3113320894 PubChem-46070050 ZINC000034735461 ZINC34735461
 34 37 0 0 0
SMALL
GASTEIGER

@<TRIPOS>ATOM
      1 C          10.9214   42.1765    9.6353 C.ar    1  UNL1        0.0565
      2 C          10.9860   43.5255   10.0254 C.ar    1  UNL1        0.0150
      3 C           9.8202   44.2659   10.2359 C.ar    1  UNL1        0.0026
      4 C           8.5730   43.6634   10.0674 C.ar    1  UNL1        0.0148
      5 C           8.4835   42.3154    9.6926 C.ar    1  UNL1        0.0516
      6 C           9.6568   41.5844    9.4804 C.ar    1  UNL1        0.0296
      7 C          14.8471   40.5169    9.2662 C.3     1  UNL1        0.0971
      8 C          14.0276   40.6223    7.9932 C.3     1  UNL1        0.0435
      9 C          12.8910   41.6255    8.1940 C.3     1  UNL1        0.1015
     10 C          12.6563   40.5212   10.4556 C.2     1  UNL1        0.3112
     11 O          11.9326   40.1479   11.4204 O.2     1  UNL1       -0.2520
     12 N          13.9962   40.0198   10.3369 N.am    1  UNL1       -0.2596
     13 N          12.1354   41.4137    9.4411 N.am    1  UNL1       -0.2430
     14 C          14.4769   38.9281   11.1771 C.3     1  UNL1        0.1217
     15 C          15.2362   35.4609    8.7497 C.ar    1  UNL1        0.1387
     16 C          13.9991   35.6182    9.3957 C.ar    1  UNL1        0.0366
     17 C          13.7580   36.7425   10.1909 C.ar    1  UNL1        0.0005
     18 C          14.7503   37.7149   10.3497 C.ar    1  UNL1       -0.0021
     19 C          15.9818   37.5649    9.7042 C.ar    1  UNL1        0.0005
     20 C          16.2233   36.4400    8.9089 C.ar    1  UNL1        0.0366
     21 C          15.3896   33.0118    8.4218 C.3     1  UNL1        0.2525
     22 O          15.5098   34.3480    7.9486 O.3     1  UNL1       -0.4714
     23 C           6.3822   41.6888    8.3647 C.2     1  UNL1        0.2305
     24 O           6.7011   42.3605    7.3472 O.2     1  UNL1       -0.2744
     25 N           7.2217   41.6554    9.5263 N.am    1  UNL1       -0.2836
     26 H           6.8980   41.1240   10.2893 H       1  UNL1        0.1549
     27 C           5.1203   40.8955    8.3576 C.3     1  UNL1        0.1116
     28 C           4.3308   41.1525    9.5966 C.ar    1  UNL1       -0.0129
     29 C           4.5950   40.4261   10.7647 C.ar    1  UNL1       -0.0015
     30 C           3.8404   40.6610   11.9187 C.ar    1  UNL1        0.0293
     31 C           2.8201   41.6184   11.9068 C.ar    1  UNL1        0.1401
     32 C           2.5560   42.3445   10.7402 C.ar    1  UNL1        0.0293
     33 C           3.3092   42.1102    9.5855 C.ar    1  UNL1       -0.0015
     34 F           2.0906   41.8447   13.0258 F       1  UNL1       -0.2042
@<TRIPOS>BOND
     1    21    22    1
     2    15    22    1
     3    16    17   ar
     4    18    19   ar
     5    14    18    1
     6    14    12    1
     7     7    12    1
     8     7     8    1
     9     8     9    1
    10     9    13    1
    11    10    12   am
    12     2     3   ar
    13     4     5   ar
    14     5    25    1
    15    27    23    1
    16    27    28    1
    17    29    30   ar
    18    31    34    1
    19    31    32   ar
    20    33    28   ar
    21     6     1   ar
    22    20    15   ar
    23    13    10   am
    24    13     1    1
    25    25    23   am
    26    15    16   ar
    27    17    18   ar
    28    10    11    2
    29     1     2   ar
    30     3     4   ar
    31     5     6   ar
    32    23    24    2
    33    28    29   ar
    34    30    31   ar
    35    32    33   ar
    36    19    20   ar
    37    25    26    1
@<TRIPOS>MOLECULE
MolPort-006-609-966 ChemDiv-V013-5734 MCULE-3113320894 PubChem-46070050 ZINC000034735461 ZINC34735461
 34 37 0 0 0
SMALL
GASTEIGER

@<TRIPOS>ATOM
      1 C          12.1088   40.1471   10.4939 C.ar    1  UNL1        0.0565
      2 C          12.3539   38.9213   11.1370 C.ar    1  UNL1        0.0150
      3 C          13.6125   38.3187   11.0724 C.ar    1  UNL1        0.0026
      4 C          14.6463   38.9395   10.3704 C.ar    1  UNL1        0.0148
      5 C          14.4297   40.1693    9.7330 C.ar    1  UNL1        0.0516
      6 C          13.1647   40.7620    9.8005 C.ar    1  UNL1        0.0296
      7 C           8.6209   42.5785   10.9684 C.3     1  UNL1        0.0971
      8 C           8.7417   41.3718   11.8807 C.3     1  UNL1        0.0435
      9 C          10.1956   40.8993   11.9201 C.3     1  UNL1        0.1015
     10 C          10.1382   41.3343    9.4307 C.2     1  UNL1        0.3112
     11 O          10.5180   41.0472    8.2614 O.2     1  UNL1       -0.2520
     12 N           9.0017   42.1910    9.6184 N.am    1  UNL1       -0.2596
     13 N          10.8073   40.7725   10.5856 N.am    1  UNL1       -0.2430
     14 C           8.1417   42.5690    8.5020 C.3     1  UNL1        0.1217
     15 C           8.3923   39.7011    5.3078 C.ar    1  UNL1        0.1387
     16 C           7.6104   39.4328    6.4432 C.ar    1  UNL1        0.0366
     17 C           7.5373   40.3635    7.4839 C.ar    1  UNL1        0.0005
     18 C           8.2464   41.5659    7.4002 C.ar    1  UNL1       -0.0021
     19 C           9.0221   41.8395    6.2693 C.ar    1  UNL1        0.0005
     20 C           9.0957   40.9084    5.2282 C.ar    1  UNL1        0.0366
     21 C           9.7250   38.4571    3.6329 C.3     1  UNL1        0.2525
     22 O           8.4878   38.7913    4.2504 O.3     1  UNL1       -0.4714
     23 C          16.8628   40.8827    9.3558 C.2     1  UNL1        0.2305
     24 O          17.2997   40.3015   10.3851 O.2     1  UNL1       -0.2744
     25 N          15.4703   40.8473    9.0169 N.am    1  UNL1       -0.2836
     26 H          15.2005   41.3399    8.2083 H       1  UNL1        0.1549
     27 C          17.8103   41.6037    8.4591 C.3     1  UNL1        0.1116
     28 C          17.0900   42.6247    7.6449 C.ar    1  UNL1       -0.0129
     29 C          17.7945   43.6822    7.0555 C.ar    1  UNL1       -0.0015
     30 C          17.1106   44.6451    6.3063 C.ar    1  UNL1        0.0293
     31 C          15.7233   44.5550    6.1473 C.ar    1  UNL1        0.1401
     32 C          15.0192   43.4986    6.7356 C.ar    1  UNL1        0.0293
     33 C          15.7015   42.5355    7.4856 C.ar    1  UNL1       -0.0015
     34 F          15.0629   45.4885    5.4208 F       1  UNL1       -0.2042
@<TRIPOS>BOND
     1    21    22    1
     2    15    22    1
     3    16    17   ar
     4    18    19   ar
     5    14    18    1
     6    14    12    1
     7     7    12    1
     8     7     8    1
     9     8     9    1
    10     9    13    1
    11    10    12   am
    12     2     3   ar
    13     4     5   ar
    14     5    25    1
    15    27    23    1
    16    27    28    1
    17    29    30   ar
    18    31    34    1
    19    31    32   ar
    20    33    28   ar
    21     6     1   ar
    22    20    15   ar
    23    13    10   am
    24    13     1    1
    25    25    23   am
    26    15    16   ar
    27    17    18   ar
    28    10    11    2
    29     1     2   ar
    30     3     4   ar
    31     5     6   ar
    32    23    24    2
    33    28    29   ar
    34    30    31   ar
    35    32    33   ar
    36    19    20   ar
    37    25    26    1
@<TRIPOS>MOLECULE
MolPort-006-609-966 ChemDiv-V013-5734 MCULE-3113320894 PubChem-46070050 ZINC000034735461 ZINC34735461
 34 37 0 0 0
SMALL
GASTEIGER

@<TRIPOS>ATOM
      1 C          11.5441   40.3470    7.8053 C.ar    1  UNL1        0.0565
      2 C          11.6242   39.5576    6.6448 C.ar    1  UNL1        0.0150
      3 C          10.6871   39.6974    5.6183 C.ar    1  UNL1        0.0026
      4 C           9.6614   40.6362    5.7354 C.ar    1  UNL1        0.0148
      5 C           9.5695   41.4448    6.8770 C.ar    1  UNL1        0.0516
      6 C          10.5104   41.2938    7.9006 C.ar    1  UNL1        0.0296
      7 C          14.4506   39.2409   10.7431 C.3     1  UNL1        0.0971
      8 C          13.1526   39.8363   11.2567 C.3     1  UNL1        0.0435
      9 C          12.0776   39.7402   10.1732 C.3     1  UNL1        0.1015
     10 C          13.9429   40.4407    8.6177 C.2     1  UNL1        0.3112
     11 O          14.3333   41.0510    7.5838 O.2     1  UNL1       -0.2520
     12 N          14.9031   40.0118    9.5948 N.am    1  UNL1       -0.2596
     13 N          12.5328   40.2084    8.8524 N.am    1  UNL1       -0.2430
     14 C          16.2948   40.4461    9.5350 C.3     1  UNL1        0.1217
     15 C          16.6881   44.0087    7.1594 C.ar    1  UNL1        0.1387
     16 C          17.6056   43.7356    8.1870 C.ar    1  UNL1        0.0366
     17 C          17.4706   42.5807    8.9632 C.ar    1  UNL1        0.0005
     18 C          16.4174   41.6929    8.7217 C.ar    1  UNL1       -0.0021
     19 C          15.5044   41.9581    7.6962 C.ar    1  UNL1        0.0005
     20 C          15.6392   43.1137    6.9199 C.ar    1  UNL1        0.0366
     21 C          15.6875   45.7102    5.6652 C.3     1  UNL1        0.2525
     22 O          16.7941   45.1551    6.3661 O.3     1  UNL1       -0.4714
     23 C           7.2578   42.4393    6.3889 C.2     1  UNL1        0.2305
     24 O           6.9252   41.5313    5.5808 O.2     1  UNL1       -0.2744
     25 N           8.5413   42.4326    7.0273 N.am    1  UNL1       -0.2836
     26 H           8.7372   43.1846    7.6318 H       1  UNL1        0.1549
     27 C           6.2943   43.5313    6.7068 C.3     1  UNL1        0.1116
     28 C           5.5320   43.2148    7.9489 C.ar    1  UNL1       -0.0129
     29 C           4.3296   43.8775    8.2269 C.ar    1  UNL1       -0.0015
     30 C           3.6277   43.5872    9.4012 C.ar    1  UNL1        0.0293
     31 C           4.1266   42.6380   10.3002 C.ar    1  UNL1        0.1401
     32 C           5.3274   41.9756   10.0228 C.ar    1  UNL1        0.0293
     33 C           6.0307   42.2652    8.8494 C.ar    1  UNL1       -0.0015
     34 F           3.4448   42.3580   11.4371 F       1  UNL1       -0.2042
@<TRIPOS>BOND
     1    21    22    1
     2    15    22    1
     3    16    17   ar
     4    18    19   ar
     5    14    18    1
     6    14    12    1
     7     7    12    1
     8     7     8    1
     9     8     9    1
    10     9    13    1
    11    10    12   am
    12     2     3   ar
    13     4     5   ar
    14     5    25    1
    15    27    23    1
    16    27    28    1
    17    29    30   ar
    18    31    34    1
    19    31    32   ar
    20    33    28   ar
    21     6     1   ar
    22    20    15   ar
    23    13    10   am
    24    13     1    1
    25    25    23   am
    26    15    16   ar
    27    17    18   ar
    28    10    11    2
    29     1     2   ar
    30     3     4   ar
    31     5     6   ar
    32    23    24    2
    33    28    29   ar
    34    30    31   ar
    35    32    33   ar
    36    19    20   ar
    37    25    26    1
@<TRIPOS>MOLECULE
MolPort-006-609-966 ChemDiv-V013-5734 MCULE-3113320894 PubChem-46070050 ZINC000034735461 ZINC34735461
 34 37 0 0 0
SMALL
GASTEIGER

@<TRIPOS>ATOM
      1 C          11.2912   39.6375    9.6737 C.ar    1  UNL1        0.0565
      2 C          11.1711   38.2456    9.8301 C.ar    1  UNL1        0.0150
      3 C          12.2775   37.4090    9.6641 C.ar    1  UNL1        0.0026
      4 C          13.5219   37.9552    9.3479 C.ar    1  UNL1        0.0148
      5 C          13.6692   39.3417    9.2011 C.ar    1  UNL1        0.0516
      6 C          12.5543   40.1698    9.3653 C.ar    1  UNL1        0.0296
      7 C           8.3681   42.7120   10.2256 C.3     1  UNL1        0.0971
      8 C           8.5466   41.7266   11.3659 C.3     1  UNL1        0.0435
      9 C           9.8928   41.0148   11.2254 C.3     1  UNL1        0.1015
     10 C           9.2947   40.9115    8.7716 C.2     1  UNL1        0.3112
     11 O           9.3409   40.3168    7.6589 O.2     1  UNL1       -0.2520
     12 N           8.3586   41.9823    8.9667 N.am    1  UNL1       -0.2596
     13 N          10.1431   40.4960    9.8692 N.am    1  UNL1       -0.2430
     14 C           7.3118   42.2646    7.9902 C.3     1  UNL1        0.1217
     15 C           3.4699   42.1802    9.9195 C.ar    1  UNL1        0.1387
     16 C           4.2627   41.0223    9.8652 C.ar    1  UNL1        0.0366
     17 C           5.5079   41.0505    9.2301 C.ar    1  UNL1        0.0005
     18 C           5.9683   42.2327    8.6421 C.ar    1  UNL1       -0.0021
     19 C           5.1845   43.3895    8.6981 C.ar    1  UNL1        0.0005
     20 C           3.9386   43.3613    9.3331 C.ar    1  UNL1        0.0366
     21 C           2.0682   42.2065   11.9600 C.3     1  UNL1        0.2525
     22 O           2.2197   42.1853   10.5456 O.3     1  UNL1       -0.4714
     23 C          16.0510   40.0922    9.7802 C.2     1  UNL1        0.2305
     24 O          15.9926   39.7007   10.9766 O.2     1  UNL1       -0.2744
     25 N          14.9341   39.9428    8.8940 N.am    1  UNL1       -0.2836
     26 H          15.0474   40.2890    7.9794 H       1  UNL1        0.1549
     27 C          17.3095   40.7031    9.2658 C.3     1  UNL1        0.1116
     28 C          17.0105   41.9170    8.4525 C.ar    1  UNL1       -0.0129
     29 C          17.9929   42.8968    8.2602 C.ar    1  UNL1       -0.0015
     30 C          17.7010   44.0402    7.5096 C.ar    1  UNL1        0.0293
     31 C          16.4282   44.2080    6.9530 C.ar    1  UNL1        0.1401
     32 C          15.4467   43.2293    7.1446 C.ar    1  UNL1        0.0293
     33 C          15.7368   42.0858    7.8954 C.ar    1  UNL1       -0.0015
     34 F          16.1476   45.3162    6.2258 F       1  UNL1       -0.2042
@<TRIPOS>BOND
     1    21    22    1
     2    15    22    1
     3    16    17   ar
     4    18    19   ar
     5    14    18    1
     6    14    12    1
     7     7    12    1
     8     7     8    1
     9     8     9    1
    10     9    13    1
    11    10    12   am
    12     2     3   ar
    13     4     5   ar
    14     5    25    1
    15    27    23    1
    16    27    28    1
    17    29    30   ar
    18    31    34    1
    19    31    32   ar
    20    33    28   ar
    21     6     1   ar
    22    20    15   ar
    23    13    10   am
    24    13     1    1
    25    25    23   am
    26    15    16   ar
    27    17    18   ar
    28    10    11    2
    29     1     2   ar
    30     3     4   ar
    31     5     6   ar
    32    23    24    2
    33    28    29   ar
    34    30    31   ar
    35    32    33   ar
    36    19    20   ar
    37    25    26    1
@<TRIPOS>MOLECULE
MolPort-006-609-966 ChemDiv-V013-5734 MCULE-3113320894 PubChem-46070050 ZINC000034735461 ZINC34735461
 34 37 0 0 0
SMALL
GASTEIGER

@<TRIPOS>ATOM
      1 C          13.8786   41.2321    8.2424 C.ar    1  UNL1        0.0565
      2 C          14.8397   42.0898    7.6793 C.ar    1  UNL1        0.0150
      3 C          14.5319   42.8770    6.5670 C.ar    1  UNL1        0.0026
      4 C          13.2545   42.8232    6.0082 C.ar    1  UNL1        0.0148
      5 C          12.2752   41.9860    6.5612 C.ar    1  UNL1        0.0516
      6 C          12.5950   41.1991    7.6722 C.ar    1  UNL1        0.0296
      7 C          14.5960   38.3303   11.3029 C.3     1  UNL1        0.0971
      8 C          13.5786   39.4128   11.6129 C.3     1  UNL1        0.0435
      9 C          13.1020   40.0596   10.3117 C.3     1  UNL1        0.1015
     10 C          15.5421   39.9500    9.6609 C.2     1  UNL1        0.3112
     11 O          16.5324   40.4341    9.0455 O.2     1  UNL1       -0.2520
     12 N          15.7500   38.9368   10.6563 N.am    1  UNL1       -0.2596
     13 N          14.2022   40.4376    9.4075 N.am    1  UNL1       -0.2430
     14 C          17.0881   38.6003   11.1309 C.3     1  UNL1        0.1217
     15 C          18.5240   35.0504    9.1747 C.ar    1  UNL1        0.1387
     16 C          17.3013   35.6262    8.7929 C.ar    1  UNL1        0.0366
     17 C          16.8330   36.7757    9.4363 C.ar    1  UNL1        0.0005
     18 C          17.5793   37.3558   10.4668 C.ar    1  UNL1       -0.0021
     19 C          18.7999   36.7888   10.8468 C.ar    1  UNL1        0.0005
     20 C          19.2684   35.6386   10.2035 C.ar    1  UNL1        0.0366
     21 C          18.4104   33.3241    7.4038 C.3     1  UNL1        0.2525
     22 O          19.0200   33.9006    8.5527 O.3     1  UNL1       -0.4714
     23 C           9.8965   41.0367    6.4515 C.2     1  UNL1        0.2305
     24 O          10.0816   40.1929    7.3691 O.2     1  UNL1       -0.2744
     25 N          10.9466   41.9155    6.0271 N.am    1  UNL1       -0.2836
     26 H          10.7331   42.5351    5.2924 H       1  UNL1        0.1549
     27 C           8.5567   41.1416    5.8069 C.3     1  UNL1        0.1116
     28 C           7.5950   41.8441    6.7046 C.ar    1  UNL1       -0.0129
     29 C           6.9825   41.1552    7.7595 C.ar    1  UNL1       -0.0015
     30 C           6.0697   41.8158    8.5880 C.ar    1  UNL1        0.0293
     31 C           5.7652   43.1628    8.3627 C.ar    1  UNL1        0.1401
     32 C           6.3769   43.8513    7.3094 C.ar    1  UNL1        0.0293
     33 C           7.2893   43.1921    6.4797 C.ar    1  UNL1       -0.0015
     34 F           4.8809   43.8009    9.1668 F       1  UNL1       -0.2042
@<TRIPOS>BOND
     1    21    22    1
     2    15    22    1
     3    16    17   ar
     4    18    19   ar
     5    14    18    1
     6    14    12    1
     7     7    12    1
     8     7     8    1
     9     8     9    1
    10     9    13    1
    11    10    12   am
    12     2     3   ar
    13     4     5   ar
    14     5    25    1
    15    27    23    1
    16    27    28    1
    17    29    30   ar
    18    31    34    1
    19    31    32   ar
    20    33    28   ar
    21     6     1   ar
    22    20    15   ar
    23    13    10   am
    24    13     1    1
    25    25    23   am
    26    15    16   ar
    27    17    18   ar
    28    10    11    2
    29     1     2   ar
    30     3     4   ar
    31     5     6   ar
    32    23    24    2
    33    28    29   ar
    34    30    31   ar
    35    32    33   ar
    36    19    20   ar
    37    25    26    1
@<TRIPOS>MOLECULE
MolPort-006-609-966 ChemDiv-V013-5734 MCULE-3113320894 PubChem-46070050 ZINC000034735461 ZINC34735461
 34 37 0 0 0
SMALL
GASTEIGER

@<TRIPOS>ATOM
      1 C          13.1428   41.9641    7.3029 C.ar    1  UNL1        0.0565
      2 C          13.7206   43.0027    6.5521 C.ar    1  UNL1        0.0150
      3 C          15.0899   43.2673    6.6323 C.ar    1  UNL1        0.0026
      4 C          15.9018   42.4896    7.4588 C.ar    1  UNL1        0.0148
      5 C          15.3507   41.4392    8.2061 C.ar    1  UNL1        0.0516
      6 C          13.9779   41.1855    8.1216 C.ar    1  UNL1        0.0296
      7 C           9.1564   40.4567    6.9311 C.3     1  UNL1        0.0971
      8 C           9.6437   41.3787    5.8285 C.3     1  UNL1        0.0435
      9 C          11.1712   41.4470    5.8518 C.3     1  UNL1        0.1015
     10 C          10.8745   41.5624    8.3595 C.2     1  UNL1        0.3112
     11 O          11.2589   41.9775    9.4881 O.2     1  UNL1       -0.2520
     12 N           9.5598   41.0036    8.2179 N.am    1  UNL1       -0.2596
     13 N          11.7271   41.6856    7.1954 N.am    1  UNL1       -0.2430
     14 C           8.5751   41.0948    9.2908 C.3     1  UNL1        0.1217
     15 C           5.7581   44.2222    8.4112 C.ar    1  UNL1        0.1387
     16 C           7.1271   44.5125    8.5294 C.ar    1  UNL1        0.0366
     17 C           8.0397   43.4950    8.8236 C.ar    1  UNL1        0.0005
     18 C           7.5922   42.1827    9.0052 C.ar    1  UNL1       -0.0021
     19 C           6.2306   41.8882    8.8833 C.ar    1  UNL1        0.0005
     20 C           5.3174   42.9060    8.5894 C.ar    1  UNL1        0.0366
     21 C           3.4698   44.9235    7.7778 C.3     1  UNL1        0.2525
     22 O           4.8194   45.2165    8.1192 O.3     1  UNL1       -0.4714
     23 C          15.7015   39.8255   10.1668 C.2     1  UNL1        0.2305
     24 O          14.4917   39.8300   10.5196 O.2     1  UNL1       -0.2744
     25 N          16.1538   40.6065    9.0529 N.am    1  UNL1       -0.2836
     26 H          17.1159   40.5670    8.8482 H       1  UNL1        0.1549
     27 C          16.6807   38.9778   10.9045 C.3     1  UNL1        0.1116
     28 C          17.0289   37.7645   10.1103 C.ar    1  UNL1       -0.0129
     29 C          18.3600   37.3373   10.0219 C.ar    1  UNL1       -0.0015
     30 C          18.6819   36.2077    9.2625 C.ar    1  UNL1        0.0293
     31 C          17.6764   35.5058    8.5886 C.ar    1  UNL1        0.1401
     32 C          16.3466   35.9319    8.6768 C.ar    1  UNL1        0.0293
     33 C          16.0234   37.0615    9.4352 C.ar    1  UNL1       -0.0015
     34 F          17.9903   34.4116    7.8539 F       1  UNL1       -0.2042
@<TRIPOS>BOND
     1    21    22    1
     2    15    22    1
     3    16    17   ar
     4    18    19   ar
     5    14    18    1
     6    14    12    1
     7     7    12    1
     8     7     8    1
     9     8     9    1
    10     9    13    1
    11    10    12   am
    12     2     3   ar
    13     4     5   ar
    14     5    25    1
    15    27    23    1
    16    27    28    1
    17    29    30   ar
    18    31    34    1
    19    31    32   ar
    20    33    28   ar
    21     6     1   ar
    22    20    15   ar
    23    13    10   am
    24    13     1    1
    25    25    23   am
    26    15    16   ar
    27    17    18   ar
    28    10    11    2
    29     1     2   ar
    30     3     4   ar
    31     5     6   ar
    32    23    24    2
    33    28    29   ar
    34    30    31   ar
    35    32    33   ar
    36    19    20   ar
    37    25    26    1
