@<TRIPOS>MOLECULE
Molport-047-072-014 PubChem-132767563
 35 38 0 0 0
SMALL
GASTEIGER

@<TRIPOS>ATOM
      1 C          14.8654   36.3233    9.1413 C.2     1  UNL1        0.2492
      2 C          16.3941   37.4767   10.7930 C.3     1  UNL1        0.0937
      3 C          17.6878   38.2632   10.5676 C.3     1  UNL1        0.0220
      4 C          17.4812   39.5838    9.8106 C.3     1  UNL1        0.0094
      5 C          16.0061   39.9398    9.6215 C.3     1  UNL1        0.0603
      6 C          15.2619   38.7865    8.9460 C.3     1  UNL1        0.0996
      7 N          15.5603   37.5024    9.5896 N.am    1  UNL1       -0.2757
      8 O          13.7918   36.4463    8.4931 O.2     1  UNL1       -0.2699
      9 C          15.8619   41.1961    8.8284 C.ar    1  UNL1        0.0644
     10 C          14.6433   41.4857    8.2149 C.ar    1  UNL1        0.0492
     11 C          14.5283   42.6639    7.4779 C.ar    1  UNL1        0.1368
     12 C          16.7792   43.2028    7.9773 C.ar    1  UNL1        0.1406
     13 C          17.9320   44.1314    7.8477 C.3     1  UNL1        0.0737
     14 N          15.5985   43.4983    7.3740 N.ar    1  UNL1       -0.2159
     15 N          16.9065   42.0590    8.6985 N.ar    1  UNL1       -0.2348
     16 N          13.2810   42.9706    6.8437 N.pl3   1  UNL1       -0.2679
     17 H          13.1952   43.8644    6.4399 H       1  UNL1        0.1565
     18 C          12.1464   42.1020    6.7406 C.ar    1  UNL1        0.2211
     19 C          10.9072   40.5369    5.4698 C.ar    1  UNL1        0.0634
     20 C          10.7373   39.7504    4.2205 C.3     1  UNL1        0.0522
     21 C           9.9765   40.4178    6.5002 C.ar    1  UNL1        0.0296
     22 C          10.1706   41.1718    7.6560 C.ar    1  UNL1        0.0634
     23 C           9.2022   41.0747    8.7788 C.3     1  UNL1        0.0522
     24 N          11.9699   41.3724    5.6073 N.ar    1  UNL1       -0.2179
     25 N          11.2456   41.9960    7.7559 N.ar    1  UNL1       -0.2179
     26 C          16.0353   34.2459    8.4913 C.2     1  UNL1        0.0071
     27 C          15.3610   34.9571    9.3885 C.2     1  UNL1        0.0580
     28 C          18.9169   33.4854    9.4477 C.3     1  UNL1        0.0540
     29 C          17.7965   32.5422    9.1785 C.ar    1  UNL1        0.0800
     30 C          16.4334   29.2649    9.0298 C.3     1  UNL1        0.1533
     31 C          15.8622   31.6693    8.6520 C.ar    1  UNL1        0.0571
     32 C          14.4464   31.4468    8.2322 C.3     1  UNL1        0.0517
     33 C          16.5238   32.8829    8.7556 C.ar    1  UNL1        0.0286
     34 N          17.8945   31.2056    9.3204 N.ar    1  UNL1       -0.1739
     35 N          16.7190   30.6894    8.9992 N.ar    1  UNL1       -0.2532
@<TRIPOS>BOND
     1    28    29    1
     2    30    35    1
     3    32    31    1
     4    33    26    1
     5    33    29   ar
     6    27     1    1
     7     1     7   am
     8     2     7    1
     9     2     3    1
    10     3     4    1
    11     4     5    1
    12     5     6    1
    13     5     9    1
    14     6     7    1
    15     9    15   ar
    16    10    11   ar
    17    11    16    1
    18    18    25   ar
    19    19    24   ar
    20    20    19    1
    21    21    22   ar
    22    23    22    1
    23    12    14   ar
    24    13    12    1
    25    35    34   ar
    26    35    31   ar
    27    16    18    1
    28    29    34   ar
    29    31    33   ar
    30    26    27    2
    31     1     8    2
    32     9    10   ar
    33    11    14   ar
    34    18    24   ar
    35    19    21   ar
    36    22    25   ar
    37    12    15   ar
    38    16    17    1
@<TRIPOS>MOLECULE
Molport-047-072-014 PubChem-132767563
 35 38 0 0 0
SMALL
GASTEIGER

@<TRIPOS>ATOM
      1 C          15.2853   36.2396    8.9289 C.2     1  UNL1        0.2492
      2 C          16.2316   37.6419   10.8088 C.3     1  UNL1        0.0937
      3 C          17.3826   38.6509   10.8134 C.3     1  UNL1        0.0220
      4 C          17.0949   39.9163    9.9914 C.3     1  UNL1        0.0094
      5 C          15.6455   40.0003    9.5111 C.3     1  UNL1        0.0603
      6 C          15.2656   38.7350    8.7399 C.3     1  UNL1        0.0996
      7 N          15.6575   37.5227    9.4671 N.am    1  UNL1       -0.2757
      8 O          14.3543   36.1698    8.0827 O.2     1  UNL1       -0.2699
      9 C          15.4366   41.2140    8.6677 C.ar    1  UNL1        0.0644
     10 C          14.2102   41.4065    8.0320 C.ar    1  UNL1        0.0492
     11 C          14.0343   42.5462    7.2480 C.ar    1  UNL1        0.1368
     12 C          16.2435   43.2372    7.7466 C.ar    1  UNL1        0.1406
     13 C          17.3407   44.2270    7.5912 C.3     1  UNL1        0.0737
     14 N          15.0544   43.4382    7.1212 N.ar    1  UNL1       -0.2159
     15 N          16.4298   42.1319    8.5135 N.ar    1  UNL1       -0.2348
     16 N          12.7785   42.7532    6.5906 N.pl3   1  UNL1       -0.2679
     17 H          12.6618   43.6059    6.1126 H       1  UNL1        0.1565
     18 C          11.6759   41.8389    6.5619 C.ar    1  UNL1        0.2211
     19 C           9.7011   41.0205    7.5770 C.ar    1  UNL1        0.0634
     20 C           8.7152   41.0755    8.6876 C.3     1  UNL1        0.0522
     21 C           9.5386   40.0970    6.5460 C.ar    1  UNL1        0.0296
     22 C          10.4842   40.0763    5.5226 C.ar    1  UNL1        0.0634
     23 C          10.3486   39.1076    4.4041 C.3     1  UNL1        0.0522
     24 N          10.7611   41.8705    7.5670 N.ar    1  UNL1       -0.2179
     25 N          11.5303   40.9423    5.5478 N.ar    1  UNL1       -0.2179
     26 C          16.2816   34.0319    8.4397 C.2     1  UNL1        0.0071
     27 C          15.9592   34.9845    9.3079 C.2     1  UNL1        0.0580
     28 C          14.9520   31.2032    8.6059 C.3     1  UNL1        0.0540
     29 C          16.3719   31.5324    8.9104 C.ar    1  UNL1        0.0800
     30 C          19.6520   30.6072    9.9132 C.3     1  UNL1        0.1533
     31 C          18.2729   32.5703    9.2101 C.ar    1  UNL1        0.0571
     32 C          19.3607   33.5889    9.3055 C.3     1  UNL1        0.0517
     33 C          16.9556   32.7848    8.8356 C.ar    1  UNL1        0.0286
     34 N          17.2822   30.6206    9.3058 N.ar    1  UNL1       -0.1739
     35 N          18.4269   31.2603    9.4838 N.ar    1  UNL1       -0.2532
@<TRIPOS>BOND
     1    28    29    1
     2    30    35    1
     3    32    31    1
     4    33    26    1
     5    33    29   ar
     6    27     1    1
     7     1     7   am
     8     2     7    1
     9     2     3    1
    10     3     4    1
    11     4     5    1
    12     5     6    1
    13     5     9    1
    14     6     7    1
    15     9    15   ar
    16    10    11   ar
    17    11    16    1
    18    18    25   ar
    19    19    24   ar
    20    20    19    1
    21    21    22   ar
    22    23    22    1
    23    12    14   ar
    24    13    12    1
    25    35    34   ar
    26    35    31   ar
    27    16    18    1
    28    29    34   ar
    29    31    33   ar
    30    26    27    2
    31     1     8    2
    32     9    10   ar
    33    11    14   ar
    34    18    24   ar
    35    19    21   ar
    36    22    25   ar
    37    12    15   ar
    38    16    17    1
@<TRIPOS>MOLECULE
Molport-047-072-014 PubChem-132767563
 35 38 0 0 0
SMALL
GASTEIGER

@<TRIPOS>ATOM
      1 C           9.8474   41.4454    9.9799 C.2     1  UNL1        0.2492
      2 C          10.1725   40.6563    7.5993 C.3     1  UNL1        0.0937
      3 C          10.5956   41.4268    6.3462 C.3     1  UNL1        0.0220
      4 C          12.0454   41.9321    6.3948 C.3     1  UNL1        0.0094
      5 C          12.8291   41.3857    7.5889 C.3     1  UNL1        0.0603
      6 C          12.0892   41.6853    8.8939 C.3     1  UNL1        0.0996
      7 N          10.6708   41.3214    8.8048 N.am    1  UNL1       -0.2757
      8 O          10.3926   41.5039   11.1145 O.2     1  UNL1       -0.2699
      9 C          14.2084   41.9553    7.6225 C.ar    1  UNL1        0.0644
     10 C          15.1929   41.3276    8.3853 C.ar    1  UNL1        0.0492
     11 C          16.4753   41.8750    8.4045 C.ar    1  UNL1        0.1368
     12 C          15.7667   43.6007    6.9463 C.ar    1  UNL1        0.1406
     13 C          16.0783   44.8286    6.1698 C.3     1  UNL1        0.0737
     14 N          16.7360   43.0003    7.6847 N.ar    1  UNL1       -0.2159
     15 N          14.5129   43.0793    6.9178 N.ar    1  UNL1       -0.2348
     16 N          17.4937   41.2378    9.1848 N.pl3   1  UNL1       -0.2679
     17 H          18.3610   41.6997    9.2467 H       1  UNL1        0.1565
     18 C          17.3717   39.9933    9.8839 C.ar    1  UNL1        0.2211
     19 C          16.0626   38.5465   11.2229 C.ar    1  UNL1        0.0634
     20 C          14.7918   38.2669   11.9407 C.3     1  UNL1        0.0522
     21 C          17.0945   37.6099   11.2423 C.ar    1  UNL1        0.0296
     22 C          18.2706   37.9087   10.5573 C.ar    1  UNL1        0.0634
     23 C          19.3956   36.9380   10.5523 C.3     1  UNL1        0.0522
     24 N          16.2185   39.7153   10.5478 N.ar    1  UNL1       -0.2179
     25 N          18.3885   39.0881    9.8938 N.ar    1  UNL1       -0.2179
     26 C           7.7160   42.5875    9.4709 C.2     1  UNL1        0.0071
     27 C           8.3766   41.5275    9.9240 C.2     1  UNL1        0.0580
     28 C           6.0234   44.3030    7.4737 C.3     1  UNL1        0.0540
     29 C           5.4942   43.4087    8.5402 C.ar    1  UNL1        0.0800
     30 C           2.8090   41.9285   10.3344 C.3     1  UNL1        0.1533
     31 C           5.3045   42.0027   10.2040 C.ar    1  UNL1        0.0571
     32 C           5.5646   41.0501   11.3242 C.3     1  UNL1        0.0517
     33 C           6.2464   42.6519    9.4212 C.ar    1  UNL1        0.0286
     34 N           4.1804   43.2260    8.7785 N.ar    1  UNL1       -0.1739
     35 N           4.0788   42.3743    9.7862 N.ar    1  UNL1       -0.2532
@<TRIPOS>BOND
     1    28    29    1
     2    30    35    1
     3    32    31    1
     4    33    26    1
     5    33    29   ar
     6    27     1    1
     7     1     7   am
     8     2     7    1
     9     2     3    1
    10     3     4    1
    11     4     5    1
    12     5     6    1
    13     5     9    1
    14     6     7    1
    15     9    15   ar
    16    10    11   ar
    17    11    16    1
    18    18    25   ar
    19    19    24   ar
    20    20    19    1
    21    21    22   ar
    22    23    22    1
    23    12    14   ar
    24    13    12    1
    25    35    34   ar
    26    35    31   ar
    27    16    18    1
    28    29    34   ar
    29    31    33   ar
    30    26    27    2
    31     1     8    2
    32     9    10   ar
    33    11    14   ar
    34    18    24   ar
    35    19    21   ar
    36    22    25   ar
    37    12    15   ar
    38    16    17    1
@<TRIPOS>MOLECULE
Molport-047-072-014 PubChem-132767563
 35 38 0 0 0
SMALL
GASTEIGER

@<TRIPOS>ATOM
      1 C          14.4373   36.1427    9.2515 C.2     1  UNL1        0.2492
      2 C          16.2679   37.3130   10.5458 C.3     1  UNL1        0.0937
      3 C          17.4710   38.1217   10.0544 C.3     1  UNL1        0.0220
      4 C          17.0867   39.4424    9.3705 C.3     1  UNL1        0.0094
      5 C          15.6003   39.7751    9.5057 C.3     1  UNL1        0.0603
      6 C          14.7457   38.6130    8.9962 C.3     1  UNL1        0.0996
      7 N          15.1947   37.3308    9.5499 N.am    1  UNL1       -0.2757
      8 O          13.2479   36.2513    8.8500 O.2     1  UNL1       -0.2699
      9 C          15.2702   41.0327    8.7725 C.ar    1  UNL1        0.0644
     10 C          13.9365   41.4142    8.6277 C.ar    1  UNL1        0.0492
     11 C          13.6482   42.5920    7.9392 C.ar    1  UNL1        0.1368
     12 C          15.9601   42.9530    7.5770 C.ar    1  UNL1        0.1406
     13 C          17.0519   43.7853    7.0086 C.3     1  UNL1        0.0737
     14 N          14.6658   43.3374    7.4278 N.ar    1  UNL1       -0.2159
     15 N          16.2566   41.8083    8.2450 N.ar    1  UNL1       -0.2348
     16 N          12.2816   42.9927    7.7848 N.pl3   1  UNL1       -0.2679
     17 H          12.0083   43.3074    6.8929 H       1  UNL1        0.1565
     18 C          11.2742   42.9795    8.8034 C.ar    1  UNL1        0.2211
     19 C          10.3772   41.9703   10.7469 C.ar    1  UNL1        0.0634
     20 C          10.4428   40.9086   11.7845 C.3     1  UNL1        0.0522
     21 C           9.3552   42.9172   10.7824 C.ar    1  UNL1        0.0296
     22 C           9.3279   43.8970    9.7918 C.ar    1  UNL1        0.0634
     23 C           8.2556   44.9257    9.7925 C.3     1  UNL1        0.0522
     24 N          11.3136   42.0178    9.7634 N.ar    1  UNL1       -0.2179
     25 N          10.2819   43.9114    8.8251 N.ar    1  UNL1       -0.2179
     26 C          15.7590   34.2153    8.4485 C.2     1  UNL1        0.0071
     27 C          14.9949   34.7837    9.3751 C.2     1  UNL1        0.0580
     28 C          18.6534   33.4986    9.4003 C.3     1  UNL1        0.0540
     29 C          17.5870   32.5357    9.0093 C.ar    1  UNL1        0.0800
     30 C          16.3907   29.2296    8.5000 C.3     1  UNL1        0.1533
     31 C          15.7098   31.6303    8.3480 C.ar    1  UNL1        0.0571
     32 C          14.3161   31.3849    7.8710 C.3     1  UNL1        0.0517
     33 C          16.3084   32.8571    8.5890 C.ar    1  UNL1        0.0286
     34 N          17.7477   31.1976    9.0204 N.ar    1  UNL1       -0.1739
     35 N          16.6063   30.6618    8.6187 N.ar    1  UNL1       -0.2532
@<TRIPOS>BOND
     1    28    29    1
     2    30    35    1
     3    32    31    1
     4    33    26    1
     5    33    29   ar
     6    27     1    1
     7     1     7   am
     8     2     7    1
     9     2     3    1
    10     3     4    1
    11     4     5    1
    12     5     6    1
    13     5     9    1
    14     6     7    1
    15     9    15   ar
    16    10    11   ar
    17    11    16    1
    18    18    25   ar
    19    19    24   ar
    20    20    19    1
    21    21    22   ar
    22    23    22    1
    23    12    14   ar
    24    13    12    1
    25    35    34   ar
    26    35    31   ar
    27    16    18    1
    28    29    34   ar
    29    31    33   ar
    30    26    27    2
    31     1     8    2
    32     9    10   ar
    33    11    14   ar
    34    18    24   ar
    35    19    21   ar
    36    22    25   ar
    37    12    15   ar
    38    16    17    1
@<TRIPOS>MOLECULE
Molport-047-072-014 PubChem-132767563
 35 38 0 0 0
SMALL
GASTEIGER

@<TRIPOS>ATOM
      1 C          15.0796   36.8055    8.9865 C.2     1  UNL1        0.2492
      2 C          15.9210   38.7249   10.4021 C.3     1  UNL1        0.0937
      3 C          16.8000   39.9219   10.0316 C.3     1  UNL1        0.0220
      4 C          16.1229   40.9075    9.0673 C.3     1  UNL1        0.0094
      5 C          14.6421   40.6000    8.8408 C.3     1  UNL1        0.0603
      6 C          14.4632   39.1532    8.3773 C.3     1  UNL1        0.0996
      7 N          15.2160   38.2197    9.2224 N.am    1  UNL1       -0.2757
      8 O          14.0852   36.3786    8.3410 O.2     1  UNL1       -0.2699
      9 C          14.0500   41.5474    7.8509 C.ar    1  UNL1        0.0644
     10 C          12.7465   41.3432    7.3987 C.ar    1  UNL1        0.0492
     11 C          12.2109   42.2386    6.4736 C.ar    1  UNL1        0.1368
     12 C          14.2337   43.4695    6.4854 C.ar    1  UNL1        0.1406
     13 C          15.0356   44.6185    5.9909 C.3     1  UNL1        0.0737
     14 N          12.9654   43.2835    6.0358 N.ar    1  UNL1       -0.2159
     15 N          14.7690   42.6057    7.3864 N.ar    1  UNL1       -0.2348
     16 N          10.8730   42.0378    6.0027 N.pl3   1  UNL1       -0.2679
     17 H          10.7198   42.1502    5.0367 H       1  UNL1        0.1565
     18 C           9.7365   41.6891    6.8022 C.ar    1  UNL1        0.2211
     19 C           7.6401   40.6045    6.9719 C.ar    1  UNL1        0.0634
     20 C           6.5589   39.8028    6.3421 C.3     1  UNL1        0.0522
     21 C           7.5311   40.9960    8.3050 C.ar    1  UNL1        0.0296
     22 C           8.5657   41.7469    8.8596 C.ar    1  UNL1        0.0634
     23 C           8.4896   42.1849   10.2774 C.3     1  UNL1        0.0522
     24 N           8.7348   40.9560    6.2479 N.ar    1  UNL1       -0.2179
     25 N           9.6442   42.0787    8.1034 N.ar    1  UNL1       -0.2179
     26 C          16.8226   35.0895    8.6343 C.2     1  UNL1        0.0071
     27 C          16.0677   35.8155    9.4520 C.2     1  UNL1        0.0580
     28 C          19.5321   35.7513   10.0546 C.3     1  UNL1        0.0540
     29 C          19.0042   34.3938    9.7450 C.ar    1  UNL1        0.0800
     30 C          19.2648   30.8511    9.7876 C.3     1  UNL1        0.1533
     31 C          17.7720   32.7211    9.0634 C.ar    1  UNL1        0.0571
     32 C          16.6935   31.8666    8.4830 C.3     1  UNL1        0.0517
     33 C          17.8054   34.1059    9.1167 C.ar    1  UNL1        0.0286
     34 N          19.6522   33.2523   10.0507 N.ar    1  UNL1       -0.1739
     35 N          18.8973   32.2486    9.6336 N.ar    1  UNL1       -0.2532
@<TRIPOS>BOND
     1    28    29    1
     2    30    35    1
     3    32    31    1
     4    33    26    1
     5    33    29   ar
     6    27     1    1
     7     1     7   am
     8     2     7    1
     9     2     3    1
    10     3     4    1
    11     4     5    1
    12     5     6    1
    13     5     9    1
    14     6     7    1
    15     9    15   ar
    16    10    11   ar
    17    11    16    1
    18    18    25   ar
    19    19    24   ar
    20    20    19    1
    21    21    22   ar
    22    23    22    1
    23    12    14   ar
    24    13    12    1
    25    35    34   ar
    26    35    31   ar
    27    16    18    1
    28    29    34   ar
    29    31    33   ar
    30    26    27    2
    31     1     8    2
    32     9    10   ar
    33    11    14   ar
    34    18    24   ar
    35    19    21   ar
    36    22    25   ar
    37    12    15   ar
    38    16    17    1
@<TRIPOS>MOLECULE
Molport-047-072-014 PubChem-132767563
 35 38 0 0 0
SMALL
GASTEIGER

@<TRIPOS>ATOM
      1 C           8.7160   41.2870   10.1637 C.2     1  UNL1        0.2492
      2 C           8.7623   39.9807    7.9987 C.3     1  UNL1        0.0937
      3 C           9.6854   40.1032    6.7839 C.3     1  UNL1        0.0220
      4 C          11.1407   39.7064    7.0743 C.3     1  UNL1        0.0094
      5 C          11.3239   39.0754    8.4552 C.3     1  UNL1        0.0603
      6 C          10.7696   39.9994    9.5411 C.3     1  UNL1        0.0996
      7 N           9.4269   40.4838    9.2026 N.am    1  UNL1       -0.2757
      8 O           9.0693   41.2626   11.3730 O.2     1  UNL1       -0.2699
      9 C          12.7619   38.7665    8.7098 C.ar    1  UNL1        0.0644
     10 C          13.6720   39.8116    8.8669 C.ar    1  UNL1        0.0492
     11 C          15.0112   39.5031    9.1035 C.ar    1  UNL1        0.1368
     12 C          14.4995   37.1927    9.0201 C.ar    1  UNL1        0.1406
     13 C          14.9484   35.7786    9.1030 C.3     1  UNL1        0.0737
     14 N          15.3977   38.2000    9.1753 N.ar    1  UNL1       -0.2159
     15 N          13.1919   37.4775    8.7891 N.ar    1  UNL1       -0.2348
     16 N          15.9541   40.5692    9.2663 N.pl3   1  UNL1       -0.2679
     17 H          16.5648   40.5093   10.0362 H       1  UNL1        0.1565
     18 C          16.0939   41.7141    8.4167 C.ar    1  UNL1        0.2211
     19 C          15.1444   43.1643    6.8056 C.ar    1  UNL1        0.0634
     20 C          13.9912   43.5483    5.9507 C.3     1  UNL1        0.0522
     21 C          16.3202   43.9113    6.7662 C.ar    1  UNL1        0.0296
     22 C          17.3793   43.5195    7.5827 C.ar    1  UNL1        0.0634
     23 C          18.6509   44.2881    7.5716 C.3     1  UNL1        0.0522
     24 N          15.0523   42.0848    7.6256 N.ar    1  UNL1       -0.2179
     25 N          17.2490   42.4342    8.3891 N.ar    1  UNL1       -0.2179
     26 C           6.3457   41.7321    9.6254 C.2     1  UNL1        0.0071
     27 C           7.5897   42.1653    9.7990 C.2     1  UNL1        0.0580
     28 C           3.4893   41.7120   10.9052 C.3     1  UNL1        0.0540
     29 C           3.9684   42.6184    9.8252 C.ar    1  UNL1        0.0800
     30 C           3.4658   45.2674    7.5120 C.3     1  UNL1        0.1533
     31 C           5.1807   43.6359    8.3166 C.ar    1  UNL1        0.0571
     32 C           6.2802   44.0785    7.4081 C.3     1  UNL1        0.0517
     33 C           5.2324   42.6237    9.2622 C.ar    1  UNL1        0.0286
     34 N           3.2032   43.5690    9.2532 N.ar    1  UNL1       -0.1739
     35 N           3.9472   44.1769    8.3431 N.ar    1  UNL1       -0.2532
@<TRIPOS>BOND
     1    28    29    1
     2    30    35    1
     3    32    31    1
     4    33    26    1
     5    33    29   ar
     6    27     1    1
     7     1     7   am
     8     2     7    1
     9     2     3    1
    10     3     4    1
    11     4     5    1
    12     5     6    1
    13     5     9    1
    14     6     7    1
    15     9    15   ar
    16    10    11   ar
    17    11    16    1
    18    18    25   ar
    19    19    24   ar
    20    20    19    1
    21    21    22   ar
    22    23    22    1
    23    12    14   ar
    24    13    12    1
    25    35    34   ar
    26    35    31   ar
    27    16    18    1
    28    29    34   ar
    29    31    33   ar
    30    26    27    2
    31     1     8    2
    32     9    10   ar
    33    11    14   ar
    34    18    24   ar
    35    19    21   ar
    36    22    25   ar
    37    12    15   ar
    38    16    17    1
@<TRIPOS>MOLECULE
Molport-047-072-014 PubChem-132767563
 35 38 0 0 0
SMALL
GASTEIGER

@<TRIPOS>ATOM
      1 C          10.0375   41.3847    9.6599 C.2     1  UNL1        0.2492
      2 C          10.4352   40.8771    7.2145 C.3     1  UNL1        0.0937
      3 C          10.9680   41.7671    6.0890 C.3     1  UNL1        0.0220
      4 C          12.4415   42.1644    6.2638 C.3     1  UNL1        0.0094
      5 C          13.1283   41.4230    7.4114 C.3     1  UNL1        0.0603
      6 C          12.3423   41.6070    8.7108 C.3     1  UNL1        0.0996
      7 N          10.9108   41.3527    8.5152 N.am    1  UNL1       -0.2757
      8 O          10.5264   41.2654   10.8151 O.2     1  UNL1       -0.2699
      9 C          14.5363   41.8905    7.5765 C.ar    1  UNL1        0.0644
     10 C          15.3875   41.2134    8.4496 C.ar    1  UNL1        0.0492
     11 C          16.6990   41.6655    8.5907 C.ar    1  UNL1        0.1368
     12 C          16.2756   43.3979    7.0331 C.ar    1  UNL1        0.1406
     13 C          16.7570   44.5778    6.2689 C.3     1  UNL1        0.0737
     14 N          17.1164   42.7485    7.8797 N.ar    1  UNL1       -0.2159
     15 N          14.9954   42.9693    6.8850 N.ar    1  UNL1       -0.2348
     16 N          17.5814   40.9771    9.4849 N.pl3   1  UNL1       -0.2679
     17 H          18.4545   41.3972    9.6595 H       1  UNL1        0.1565
     18 C          17.3157   39.7361   10.1495 C.ar    1  UNL1        0.2211
     19 C          15.7994   38.3656   11.3423 C.ar    1  UNL1        0.0634
     20 C          14.4536   38.1638   11.9392 C.3     1  UNL1        0.0522
     21 C          16.7617   37.3621   11.4380 C.ar    1  UNL1        0.0296
     22 C          18.0118   37.5891   10.8656 C.ar    1  UNL1        0.0634
     23 C          19.0667   36.5456   10.9447 C.3     1  UNL1        0.0522
     24 N          16.0916   39.5286   10.7033 N.ar    1  UNL1       -0.2179
     25 N          18.2660   38.7649   10.2349 N.ar    1  UNL1       -0.2179
     26 C           7.9764   42.7477    9.6851 C.2     1  UNL1        0.0071
     27 C           8.5792   41.5712    9.5516 C.2     1  UNL1        0.0580
     28 C           5.8189   41.1718   11.3155 C.3     1  UNL1        0.0540
     29 C           5.5613   42.2216   10.2914 C.ar    1  UNL1        0.0800
     30 C           3.3629   44.2516    8.3765 C.3     1  UNL1        0.1533
     31 C           5.7852   43.7681    8.7620 C.ar    1  UNL1        0.0571
     32 C           6.3175   44.7530    7.7737 C.3     1  UNL1        0.0517
     33 C           6.5186   42.9159    9.5728 C.ar    1  UNL1        0.0286
     34 N           4.3278   42.6309    9.9347 N.ar    1  UNL1       -0.1739
     35 N           4.4766   43.5657    9.0097 N.ar    1  UNL1       -0.2532
@<TRIPOS>BOND
     1    28    29    1
     2    30    35    1
     3    32    31    1
     4    33    26    1
     5    33    29   ar
     6    27     1    1
     7     1     7   am
     8     2     7    1
     9     2     3    1
    10     3     4    1
    11     4     5    1
    12     5     6    1
    13     5     9    1
    14     6     7    1
    15     9    15   ar
    16    10    11   ar
    17    11    16    1
    18    18    25   ar
    19    19    24   ar
    20    20    19    1
    21    21    22   ar
    22    23    22    1
    23    12    14   ar
    24    13    12    1
    25    35    34   ar
    26    35    31   ar
    27    16    18    1
    28    29    34   ar
    29    31    33   ar
    30    26    27    2
    31     1     8    2
    32     9    10   ar
    33    11    14   ar
    34    18    24   ar
    35    19    21   ar
    36    22    25   ar
    37    12    15   ar
    38    16    17    1
@<TRIPOS>MOLECULE
Molport-047-072-014 PubChem-132767563
 35 38 0 0 0
SMALL
GASTEIGER

@<TRIPOS>ATOM
      1 C           8.3573   41.0753    8.4553 C.2     1  UNL1        0.2492
      2 C           9.1839   42.0234   10.6493 C.3     1  UNL1        0.0937
      3 C           9.6745   41.3165   11.9152 C.3     1  UNL1        0.0220
      4 C          10.9977   40.5599   11.7239 C.3     1  UNL1        0.0094
      5 C          11.6559   40.8393   10.3722 C.3     1  UNL1        0.0603
      6 C          10.6771   40.5494    9.2328 C.3     1  UNL1        0.0996
      7 N           9.3684   41.1658    9.4769 N.am    1  UNL1       -0.2757
      8 O           8.6959   40.8104    7.2708 O.2     1  UNL1       -0.2699
      9 C          12.9025   40.0338   10.2136 C.ar    1  UNL1        0.0644
     10 C          14.0568   40.6431    9.7220 C.ar    1  UNL1        0.0492
     11 C          15.2113   39.8739    9.5805 C.ar    1  UNL1        0.1368
     12 C          14.0549   37.9770   10.3995 C.ar    1  UNL1        0.1406
     13 C          14.0556   36.5367   10.7648 C.3     1  UNL1        0.0737
     14 N          15.1868   38.5567    9.9220 N.ar    1  UNL1       -0.2159
     15 N          12.9226   38.7132   10.5429 N.ar    1  UNL1       -0.2348
     16 N          16.4022   40.4902    9.0764 N.pl3   1  UNL1       -0.2679
     17 H          17.2524   40.0270    9.2546 H       1  UNL1        0.1565
     18 C          16.4750   41.7157    8.3380 C.ar    1  UNL1        0.2211
     19 C          17.7189   43.6302    7.7155 C.ar    1  UNL1        0.0634
     20 C          18.9701   44.4273    7.8010 C.3     1  UNL1        0.0522
     21 C          16.6577   44.0809    6.9326 C.ar    1  UNL1        0.0296
     22 C          15.5012   43.3053    6.8780 C.ar    1  UNL1        0.0634
     23 C          14.3462   43.7492    6.0552 C.3     1  UNL1        0.0522
     24 N          17.6096   42.4620    8.4007 N.ar    1  UNL1       -0.2179
     25 N          15.4300   42.1431    7.5773 N.ar    1  UNL1       -0.2179
     26 C           6.4418   42.2020    9.5359 C.2     1  UNL1        0.0071
     27 C           6.9208   41.2611    8.7295 C.2     1  UNL1        0.0580
     28 C           4.5452   44.2283    8.0888 C.3     1  UNL1        0.0540
     29 C           4.1616   43.2681    9.1604 C.ar    1  UNL1        0.0800
     30 C           1.7669   41.8026   11.3371 C.3     1  UNL1        0.1533
     31 C           4.1826   41.7151   10.6993 C.ar    1  UNL1        0.0571
     32 C           4.5747   40.6364   11.6547 C.3     1  UNL1        0.0517
     33 C           5.0037   42.3739    9.7976 C.ar    1  UNL1        0.0286
     34 N           2.9107   43.1543    9.6489 N.ar    1  UNL1       -0.1739
     35 N           2.9365   42.2125   10.5783 N.ar    1  UNL1       -0.2532
@<TRIPOS>BOND
     1    28    29    1
     2    30    35    1
     3    32    31    1
     4    33    26    1
     5    33    29   ar
     6    27     1    1
     7     1     7   am
     8     2     7    1
     9     2     3    1
    10     3     4    1
    11     4     5    1
    12     5     6    1
    13     5     9    1
    14     6     7    1
    15     9    15   ar
    16    10    11   ar
    17    11    16    1
    18    18    25   ar
    19    19    24   ar
    20    20    19    1
    21    21    22   ar
    22    23    22    1
    23    12    14   ar
    24    13    12    1
    25    35    34   ar
    26    35    31   ar
    27    16    18    1
    28    29    34   ar
    29    31    33   ar
    30    26    27    2
    31     1     8    2
    32     9    10   ar
    33    11    14   ar
    34    18    24   ar
    35    19    21   ar
    36    22    25   ar
    37    12    15   ar
    38    16    17    1
@<TRIPOS>MOLECULE
Molport-047-072-014 PubChem-132767563
 35 38 0 0 0
SMALL
GASTEIGER

@<TRIPOS>ATOM
      1 C          13.2847   35.7875   10.0014 C.2     1  UNL1        0.2492
      2 C          14.5429   37.3495   11.5419 C.3     1  UNL1        0.0937
      3 C          15.2430   38.6795   11.2526 C.3     1  UNL1        0.0220
      4 C          14.2789   39.8109   10.8650 C.3     1  UNL1        0.0094
      5 C          12.8087   39.4326   11.0492 C.3     1  UNL1        0.0603
      6 C          12.4910   38.1433   10.2897 C.3     1  UNL1        0.0996
      7 N          13.4864   37.1000   10.5593 N.am    1  UNL1       -0.2757
      8 O          12.1335   35.4484    9.6173 O.2     1  UNL1       -0.2699
      9 C          11.9163   40.5419   10.6007 C.ar    1  UNL1        0.0644
     10 C          10.6655   40.7016   11.1967 C.ar    1  UNL1        0.0492
     11 C           9.8459   41.7434   10.7638 C.ar    1  UNL1        0.1368
     12 C          11.5015   42.4065    9.2064 C.ar    1  UNL1        0.1406
     13 C          11.9514   43.3282    8.1313 C.3     1  UNL1        0.0737
     14 N          10.2805   42.5745    9.7775 N.ar    1  UNL1       -0.2159
     15 N          12.3110   41.3963    9.6174 N.ar    1  UNL1       -0.2348
     16 N           8.5592   41.9161   11.3695 N.pl3   1  UNL1       -0.2679
     17 H           8.5444   42.2562   12.2932 H       1  UNL1        0.1565
     18 C           7.2920   41.6414   10.7603 C.ar    1  UNL1        0.2211
     19 C           6.0590   41.1008    8.8142 C.ar    1  UNL1        0.0634
     20 C           6.0302   40.8035    7.3585 C.3     1  UNL1        0.0522
     21 C           4.8740   41.1071    9.5476 C.ar    1  UNL1        0.0296
     22 C           4.9422   41.3904   10.9104 C.ar    1  UNL1        0.0634
     23 C           3.7026   41.4073   11.7295 C.3     1  UNL1        0.0522
     24 N           7.2407   41.3666    9.4300 N.ar    1  UNL1       -0.2179
     25 N           6.1426   41.6511   11.4900 N.ar    1  UNL1       -0.2179
     26 C          14.8989   34.4843    8.6590 C.2     1  UNL1        0.0071
     27 C          14.3754   34.8098    9.8360 C.2     1  UNL1        0.0580
     28 C          17.9559   35.1485    8.5588 C.3     1  UNL1        0.0540
     29 C          17.3413   33.7952    8.4676 C.ar    1  UNL1        0.0800
     30 C          17.5810   30.2664    8.1351 C.3     1  UNL1        0.1533
     31 C          15.9304   32.1266    8.3904 C.ar    1  UNL1        0.0571
     32 C          14.7049   31.2733    8.3776 C.3     1  UNL1        0.0517
     33 C          15.9888   33.5061    8.5123 C.ar    1  UNL1        0.0286
     34 N          18.0528   32.6593    8.3272 N.ar    1  UNL1       -0.1739
     35 N          17.1887   31.6579    8.2818 N.ar    1  UNL1       -0.2532
@<TRIPOS>BOND
     1    28    29    1
     2    30    35    1
     3    32    31    1
     4    33    26    1
     5    33    29   ar
     6    27     1    1
     7     1     7   am
     8     2     7    1
     9     2     3    1
    10     3     4    1
    11     4     5    1
    12     5     6    1
    13     5     9    1
    14     6     7    1
    15     9    15   ar
    16    10    11   ar
    17    11    16    1
    18    18    25   ar
    19    19    24   ar
    20    20    19    1
    21    21    22   ar
    22    23    22    1
    23    12    14   ar
    24    13    12    1
    25    35    34   ar
    26    35    31   ar
    27    16    18    1
    28    29    34   ar
    29    31    33   ar
    30    26    27    2
    31     1     8    2
    32     9    10   ar
    33    11    14   ar
    34    18    24   ar
    35    19    21   ar
    36    22    25   ar
    37    12    15   ar
    38    16    17    1
@<TRIPOS>MOLECULE
Molport-047-072-014 PubChem-132767563
 35 38 0 0 0
SMALL
GASTEIGER

@<TRIPOS>ATOM
      1 C          10.4448   41.3934   10.2261 C.2     1  UNL1        0.2492
      2 C          10.5607   38.8679   10.1594 C.3     1  UNL1        0.0937
      3 C          11.2382   37.9306    9.1568 C.3     1  UNL1        0.0220
      4 C          12.7718   38.0176    9.1724 C.3     1  UNL1        0.0094
      5 C          13.3106   38.8659   10.3250 C.3     1  UNL1        0.0603
      6 C          12.6725   40.2561   10.3071 C.3     1  UNL1        0.0996
      7 N          11.2148   40.1780   10.1619 N.am    1  UNL1       -0.2757
      8 O          10.9517   42.4204   10.7515 O.2     1  UNL1       -0.2699
      9 C          14.7983   38.9682   10.2569 C.ar    1  UNL1        0.0644
     10 C          15.3851   40.1257    9.7458 C.ar    1  UNL1        0.0492
     11 C          16.7763   40.2022    9.6899 C.ar    1  UNL1        0.1368
     12 C          16.9390   38.0337   10.6266 C.ar    1  UNL1        0.1406
     13 C          17.7799   36.9045   11.1018 C.3     1  UNL1        0.0737
     14 N          17.5249   39.1547   10.1313 N.ar    1  UNL1       -0.2159
     15 N          15.5852   37.9444   10.6874 N.ar    1  UNL1       -0.2348
     16 N          17.3889   41.3867    9.1667 N.pl3   1  UNL1       -0.2679
     17 H          18.2430   41.6618    9.5717 H       1  UNL1        0.1565
     18 C          16.8784   42.2093    8.1107 C.ar    1  UNL1        0.2211
     19 C          17.3026   43.7224    6.3414 C.ar    1  UNL1        0.0634
     20 C          18.2721   44.5004    5.5271 C.3     1  UNL1        0.0522
     21 C          15.9385   43.8056    6.0683 C.ar    1  UNL1        0.0296
     22 C          15.0610   43.0610    6.8541 C.ar    1  UNL1        0.0634
     23 C          13.5988   43.1206    6.5968 C.3     1  UNL1        0.0522
     24 N          17.7462   42.9302    7.3522 N.ar    1  UNL1       -0.2179
     25 N          15.5429   42.2803    7.8558 N.ar    1  UNL1       -0.2179
     26 C           8.1227   42.2385   10.2472 C.2     1  UNL1        0.0071
     27 C           9.0786   41.5073    9.6841 C.2     1  UNL1        0.0580
     28 C           7.3063   43.8456    7.6884 C.3     1  UNL1        0.0540
     29 C           6.3983   43.0508    8.5608 C.ar    1  UNL1        0.0800
     30 C           3.1874   41.7901    9.4102 C.3     1  UNL1        0.1533
     31 C           5.5782   41.7816   10.1412 C.ar    1  UNL1        0.0571
     32 C           5.3897   40.9099   11.3389 C.3     1  UNL1        0.0517
     33 C           6.7637   42.3417    9.6915 C.ar    1  UNL1        0.0286
     34 N           5.0742   42.9251    8.3438 N.ar    1  UNL1       -0.1739
     35 N           4.5899   42.1558    9.3056 N.ar    1  UNL1       -0.2532
@<TRIPOS>BOND
     1    28    29    1
     2    30    35    1
     3    32    31    1
     4    33    26    1
     5    33    29   ar
     6    27     1    1
     7     1     7   am
     8     2     7    1
     9     2     3    1
    10     3     4    1
    11     4     5    1
    12     5     6    1
    13     5     9    1
    14     6     7    1
    15     9    15   ar
    16    10    11   ar
    17    11    16    1
    18    18    25   ar
    19    19    24   ar
    20    20    19    1
    21    21    22   ar
    22    23    22    1
    23    12    14   ar
    24    13    12    1
    25    35    34   ar
    26    35    31   ar
    27    16    18    1
    28    29    34   ar
    29    31    33   ar
    30    26    27    2
    31     1     8    2
    32     9    10   ar
    33    11    14   ar
    34    18    24   ar
    35    19    21   ar
    36    22    25   ar
    37    12    15   ar
    38    16    17    1
