@<TRIPOS>MOLECULE
MolPort-051-449-184 CSSS09880959523 MCULE-2042059605 PubChem-162638207
 26 28 0 0 0
SMALL
GASTEIGER

@<TRIPOS>ATOM
      1 C           4.7239   41.8828   10.0451 C.ar    1  UNL1        0.0729
      2 C           5.9800   41.2644   10.2767 C.ar    1  UNL1        0.0040
      3 C           7.0693   41.4906    9.4149 C.ar    1  UNL1        0.0043
      4 C           6.8543   42.3420    8.3364 C.ar    1  UNL1        0.0504
      5 C           5.6516   42.9429    8.1021 C.ar    1  UNL1        0.0766
      6 C           7.6611   42.7811    7.3197 C.ar    1  UNL1        0.1551
      7 C           4.5553   42.7394    8.9351 C.ar    1  UNL1        0.0224
      8 N           5.7167   43.7116    6.9991 N.ar    1  UNL1       -0.2745
      9 N           6.9539   43.6120    6.5182 N.ar    1  UNL1       -0.1574
     10 H           4.9845   44.2485    6.6183 H       1  UNL1        0.1890
     11 F           2.3603   41.7560   10.2982 F       1  UNL1       -0.1659
     12 F           3.6584   40.3611   11.4952 F       1  UNL1       -0.1659
     13 F           3.5946   42.5560   12.0009 F       1  UNL1       -0.1659
     14 C           3.5662   41.6365   10.9684 C.3     1  UNL1        0.4186
     15 C           9.5179   41.5389    6.1214 C.2     1  UNL1        0.2574
     16 N           9.0356   42.4278    7.1335 N.am    1  UNL1       -0.2659
     17 O           8.7254   40.9695    5.3250 O.2     1  UNL1       -0.2720
     18 H           9.6965   42.8249    7.7457 H       1  UNL1        0.1564
     19 C          10.9746   41.2532    6.0331 C.3     1  UNL1        0.2273
     20 O          11.6873   42.2356    6.7199 O.3     1  UNL1       -0.3418
     21 C          12.9528   42.2259    6.1320 C.3     1  UNL1        0.1721
     22 C          13.7535   43.4274    6.6011 C.3     1  UNL1        0.1448
     23 C          15.1698   43.0190    6.9431 C.3     1  UNL1        0.0347
     24 C          16.0090   44.1324    6.3933 C.3     1  UNL1        0.0346
     25 C          15.0002   45.0892    5.8030 C.3     1  UNL1        0.1422
     26 O          13.8049   44.3897    5.5827 O.3     1  UNL1       -0.3537
@<TRIPOS>BOND
     1    14    11    1
     2    14    12    1
     3    14    13    1
     4    14     1    1
     5     2     3   ar
     6     4     5   ar
     7     5     8   ar
     8     6    16    1
     9     6     4   ar
    10    19    15    1
    11    19    20    1
    12    21    20    1
    13    22    21    1
    14    22    23    1
    15    22    26    1
    16    23    24    1
    17    24    25    1
    18    25    26    1
    19     7     1   ar
    20     8     9   ar
    21    16    15   am
    22     1     2   ar
    23     3     4   ar
    24     5     7   ar
    25     6     9   ar
    26    15    17    2
    27     8    10    1
    28    16    18    1
@<TRIPOS>MOLECULE
MolPort-051-449-184 CSSS09880959523 MCULE-2042059605 PubChem-162638207
 26 28 0 0 0
SMALL
GASTEIGER

@<TRIPOS>ATOM
      1 C           5.0241   41.8741    9.9322 C.ar    1  UNL1        0.0729
      2 C           5.7753   42.0172    8.7367 C.ar    1  UNL1        0.0040
      3 C           7.1769   41.8922    8.7418 C.ar    1  UNL1        0.0043
      4 C           7.7820   41.6241    9.9650 C.ar    1  UNL1        0.0504
      5 C           7.0717   41.4843   11.1219 C.ar    1  UNL1        0.0766
      6 C           9.0874   41.4428   10.3398 C.ar    1  UNL1        0.1551
      7 C           5.6852   41.6025   11.1502 C.ar    1  UNL1        0.0224
      8 N           7.8981   41.2298   12.1535 N.ar    1  UNL1       -0.2745
      9 N           9.1386   41.2040   11.6714 N.ar    1  UNL1       -0.1574
     10 H           7.6339   41.0888   13.0913 H       1  UNL1        0.1890
     11 F           3.1217   42.9469    8.9854 F       1  UNL1       -0.1659
     12 F           2.9577   40.7898    9.6045 F       1  UNL1       -0.1659
     13 F           3.0899   42.4058   11.1692 F       1  UNL1       -0.1659
     14 C           3.5292   42.0092    9.9193 C.3     1  UNL1        0.4186
     15 C          11.1071   42.6053    9.3416 C.2     1  UNL1        0.2574
     16 N          10.2203   41.4894    9.4663 N.am    1  UNL1       -0.2659
     17 O          10.9152   43.6641    9.9962 O.2     1  UNL1       -0.2720
     18 H          10.4025   40.6967    8.9115 H       1  UNL1        0.1564
     19 C          12.2515   42.5274    8.3952 C.3     1  UNL1        0.2273
     20 O          11.8103   42.0396    7.1655 O.3     1  UNL1       -0.3418
     21 C          12.9274   42.1250    6.3335 C.3     1  UNL1        0.1721
     22 C          13.7564   43.3431    6.6993 C.3     1  UNL1        0.1448
     23 C          15.2106   42.9618    6.8707 C.3     1  UNL1        0.0347
     24 C          15.9575   44.0868    6.2207 C.3     1  UNL1        0.0346
     25 C          14.8681   45.0222    5.7519 C.3     1  UNL1        0.1422
     26 O          13.6680   44.3005    5.6787 O.3     1  UNL1       -0.3537
@<TRIPOS>BOND
     1    14    11    1
     2    14    12    1
     3    14    13    1
     4    14     1    1
     5     2     3   ar
     6     4     5   ar
     7     5     8   ar
     8     6    16    1
     9     6     4   ar
    10    19    15    1
    11    19    20    1
    12    21    20    1
    13    22    21    1
    14    22    23    1
    15    22    26    1
    16    23    24    1
    17    24    25    1
    18    25    26    1
    19     7     1   ar
    20     8     9   ar
    21    16    15   am
    22     1     2   ar
    23     3     4   ar
    24     5     7   ar
    25     6     9   ar
    26    15    17    2
    27     8    10    1
    28    16    18    1
@<TRIPOS>MOLECULE
MolPort-051-449-184 CSSS09880959523 MCULE-2042059605 PubChem-162638207
 26 28 0 0 0
SMALL
GASTEIGER

@<TRIPOS>ATOM
      1 C          16.0497   43.2019    6.9414 C.ar    1  UNL1        0.0729
      2 C          14.7500   43.1938    6.3716 C.ar    1  UNL1        0.0040
      3 C          13.7661   42.2948    6.8230 C.ar    1  UNL1        0.0043
      4 C          14.1282   41.4240    7.8451 C.ar    1  UNL1        0.0504
      5 C          15.3743   41.4211    8.4018 C.ar    1  UNL1        0.0766
      6 C          13.4504   40.4404    8.5162 C.ar    1  UNL1        0.1551
      7 C          16.3692   42.2970    7.9776 C.ar    1  UNL1        0.0224
      8 N          15.4570   40.4847    9.3652 N.ar    1  UNL1       -0.2745
      9 N          14.2724   39.8817    9.4354 N.ar    1  UNL1       -0.1574
     10 H          16.2476   40.2830    9.9161 H       1  UNL1        0.1890
     11 F          18.0337   44.4192    7.4395 F       1  UNL1       -0.1659
     12 F          17.7381   43.6283    5.3537 F       1  UNL1       -0.1659
     13 F          16.4933   45.3551    6.0926 F       1  UNL1       -0.1659
     14 C          17.0944   44.1635    6.4546 C.3     1  UNL1        0.4186
     15 C          10.9535   40.7585    8.8191 C.2     1  UNL1        0.2574
     16 N          12.0878   40.0640    8.2916 N.am    1  UNL1       -0.2659
     17 O          11.0960   41.7621    9.5668 O.2     1  UNL1       -0.2720
     18 H          11.9189   39.2703    7.7341 H       1  UNL1        0.1564
     19 C           9.5853   40.2644    8.5105 C.3     1  UNL1        0.2273
     20 O           9.1660   40.7806    7.2847 O.3     1  UNL1       -0.3418
     21 C           8.8027   39.6590    6.5382 C.3     1  UNL1        0.1721
     22 C           9.2610   39.8208    5.0999 C.3     1  UNL1        0.1448
     23 C          10.7505   39.5787    4.9885 C.3     1  UNL1        0.0347
     24 C          10.8932   38.7831    3.7265 C.3     1  UNL1        0.0346
     25 C           9.4773   38.6560    3.2159 C.3     1  UNL1        0.1422
     26 O           8.6001   38.8911    4.2844 O.3     1  UNL1       -0.3537
@<TRIPOS>BOND
     1    14    11    1
     2    14    12    1
     3    14    13    1
     4    14     1    1
     5     2     3   ar
     6     4     5   ar
     7     5     8   ar
     8     6    16    1
     9     6     4   ar
    10    19    15    1
    11    19    20    1
    12    21    20    1
    13    22    21    1
    14    22    23    1
    15    22    26    1
    16    23    24    1
    17    24    25    1
    18    25    26    1
    19     7     1   ar
    20     8     9   ar
    21    16    15   am
    22     1     2   ar
    23     3     4   ar
    24     5     7   ar
    25     6     9   ar
    26    15    17    2
    27     8    10    1
    28    16    18    1
@<TRIPOS>MOLECULE
MolPort-051-449-184 CSSS09880959523 MCULE-2042059605 PubChem-162638207
 26 28 0 0 0
SMALL
GASTEIGER

@<TRIPOS>ATOM
      1 C          15.5517   43.2484    6.8258 C.ar    1  UNL1        0.0729
      2 C          14.2671   43.3439    6.2301 C.ar    1  UNL1        0.0040
      3 C          13.2347   42.4569    6.5871 C.ar    1  UNL1        0.0043
      4 C          13.5340   41.4923    7.5432 C.ar    1  UNL1        0.0504
      5 C          14.7648   41.3893    8.1237 C.ar    1  UNL1        0.0766
      6 C          12.7983   40.4898    8.1186 C.ar    1  UNL1        0.1551
      7 C          15.8066   42.2507    7.7923 C.ar    1  UNL1        0.0224
      8 N          14.7836   40.3765    9.0102 N.ar    1  UNL1       -0.2745
      9 N          13.5728   39.8235    9.0069 N.ar    1  UNL1       -0.1574
     10 H          15.5511   40.0964    9.5595 H       1  UNL1        0.1890
     11 F          17.5370   44.3840    7.4856 F       1  UNL1       -0.1659
     12 F          17.3384   43.6902    5.3542 F       1  UNL1       -0.1659
     13 F          16.1018   45.4210    6.0972 F       1  UNL1       -0.1659
     14 C          16.6484   44.1978    6.4399 C.3     1  UNL1        0.4186
     15 C          10.3126   40.9355    8.3422 C.2     1  UNL1        0.2574
     16 N          11.4266   40.1939    7.8360 N.am    1  UNL1       -0.2659
     17 O          10.4811   41.9104    9.1217 O.2     1  UNL1       -0.2720
     18 H          11.2361   39.4251    7.2514 H       1  UNL1        0.1564
     19 C           8.9321   40.5245    7.9723 C.3     1  UNL1        0.2273
     20 O           8.0119   41.1969    8.7760 O.3     1  UNL1       -0.3418
     21 C           7.1212   41.7816    7.8749 C.3     1  UNL1        0.1721
     22 C           6.3490   42.8970    8.5565 C.3     1  UNL1        0.1448
     23 C           6.2060   44.0847    7.6300 C.3     1  UNL1        0.0347
     24 C           4.7969   44.5457    7.8495 C.3     1  UNL1        0.0346
     25 C           4.2633   43.5954    8.8953 C.3     1  UNL1        0.1422
     26 O           5.0661   42.4456    8.8975 O.3     1  UNL1       -0.3537
@<TRIPOS>BOND
     1    14    11    1
     2    14    12    1
     3    14    13    1
     4    14     1    1
     5     2     3   ar
     6     4     5   ar
     7     5     8   ar
     8     6    16    1
     9     6     4   ar
    10    19    15    1
    11    19    20    1
    12    21    20    1
    13    22    21    1
    14    22    23    1
    15    22    26    1
    16    23    24    1
    17    24    25    1
    18    25    26    1
    19     7     1   ar
    20     8     9   ar
    21    16    15   am
    22     1     2   ar
    23     3     4   ar
    24     5     7   ar
    25     6     9   ar
    26    15    17    2
    27     8    10    1
    28    16    18    1
@<TRIPOS>MOLECULE
MolPort-051-449-184 CSSS09880959523 MCULE-2042059605 PubChem-162638207
 26 28 0 0 0
SMALL
GASTEIGER

@<TRIPOS>ATOM
      1 C          12.1185   40.9465    9.3495 C.ar    1  UNL1        0.0729
      2 C          11.2711   41.3154    8.2725 C.ar    1  UNL1        0.0040
      3 C           9.9635   41.7804    8.5053 C.ar    1  UNL1        0.0043
      4 C           9.5484   41.8593    9.8303 C.ar    1  UNL1        0.0504
      5 C          10.3529   41.5076   10.8752 C.ar    1  UNL1        0.0766
      6 C           8.3759   42.2553   10.4182 C.ar    1  UNL1        0.1551
      7 C          11.6503   41.0440   10.6783 C.ar    1  UNL1        0.0224
      8 N           9.7079   41.6795   12.0441 N.ar    1  UNL1       -0.2745
      9 N           8.4912   42.1402   11.7622 N.ar    1  UNL1       -0.1574
     10 H          10.0693   41.4981   12.9417 H       1  UNL1        0.1890
     11 F          13.4946   39.2134    8.4725 F       1  UNL1       -0.1659
     12 F          14.1796   41.3481    8.2800 F       1  UNL1       -0.1659
     13 F          14.1900   40.3372   10.2937 F       1  UNL1       -0.1659
     14 C          13.5121   40.4510    9.0937 C.3     1  UNL1        0.4186
     15 C           7.1208   43.9811    9.0494 C.2     1  UNL1        0.2574
     16 N           7.2133   42.7247    9.7276 N.am    1  UNL1       -0.2659
     17 O           8.0851   44.7914    9.0482 O.2     1  UNL1       -0.2720
     18 H           6.4204   42.1411    9.7187 H       1  UNL1        0.1564
     19 C           5.8525   44.3521    8.3675 C.3     1  UNL1        0.2273
     20 O           4.7827   44.1904    9.2475 O.3     1  UNL1       -0.3418
     21 C           3.8766   43.3874    8.5536 C.3     1  UNL1        0.1721
     22 C           3.2832   42.3471    9.4865 C.3     1  UNL1        0.1448
     23 C           4.0859   41.0656    9.4297 C.3     1  UNL1        0.0347
     24 C           4.1590   40.6221   10.8594 C.3     1  UNL1        0.0346
     25 C           3.3763   41.6761   11.6064 C.3     1  UNL1        0.1422
     26 O           3.3058   42.8244   10.8047 O.3     1  UNL1       -0.3537
@<TRIPOS>BOND
     1    14    11    1
     2    14    12    1
     3    14    13    1
     4    14     1    1
     5     2     3   ar
     6     4     5   ar
     7     5     8   ar
     8     6    16    1
     9     6     4   ar
    10    19    15    1
    11    19    20    1
    12    21    20    1
    13    22    21    1
    14    22    23    1
    15    22    26    1
    16    23    24    1
    17    24    25    1
    18    25    26    1
    19     7     1   ar
    20     8     9   ar
    21    16    15   am
    22     1     2   ar
    23     3     4   ar
    24     5     7   ar
    25     6     9   ar
    26    15    17    2
    27     8    10    1
    28    16    18    1
@<TRIPOS>MOLECULE
MolPort-051-449-184 CSSS09880959523 MCULE-2042059605 PubChem-162638207
 26 28 0 0 0
SMALL
GASTEIGER

@<TRIPOS>ATOM
      1 C          15.1917   39.3593   10.6005 C.ar    1  UNL1        0.0729
      2 C          13.9452   39.2282   11.2661 C.ar    1  UNL1        0.0040
      3 C          12.7991   39.8965   10.7971 C.ar    1  UNL1        0.0043
      4 C          12.9485   40.6835    9.6603 C.ar    1  UNL1        0.0504
      5 C          14.1412   40.8184    9.0108 C.ar    1  UNL1        0.0766
      6 C          12.0764   41.4571    8.9403 C.ar    1  UNL1        0.1551
      7 C          15.2926   40.1712    9.4494 C.ar    1  UNL1        0.0224
      8 N          14.0081   41.6321    7.9468 N.ar    1  UNL1       -0.2745
      9 N          12.7369   42.0246    7.9037 N.ar    1  UNL1       -0.1574
     10 H          14.7195   41.8895    7.3168 H       1  UNL1        0.1890
     11 F          17.3556   39.5403   11.5758 F       1  UNL1       -0.1659
     12 F          16.0524   37.7940   12.1376 F       1  UNL1       -0.1659
     13 F          16.9698   37.9021   10.0824 F       1  UNL1       -0.1659
     14 C          16.4102   38.6437   11.1067 C.3     1  UNL1        0.4186
     15 C          10.1166   42.8178    9.7974 C.2     1  UNL1        0.2574
     16 N          10.6856   41.6348    9.2283 N.am    1  UNL1       -0.2659
     17 O          10.8403   43.7971   10.1193 O.2     1  UNL1       -0.2720
     18 H          10.0769   40.8896    9.0199 H       1  UNL1        0.1564
     19 C           8.6520   42.8769   10.0481 C.3     1  UNL1        0.2273
     20 O           8.0571   41.6859    9.6329 O.3     1  UNL1       -0.3418
     21 C           7.2642   42.0512    8.5442 C.3     1  UNL1        0.1721
     22 C           6.2990   43.1507    8.9494 C.3     1  UNL1        0.1448
     23 C           6.1977   44.1947    7.8588 C.3     1  UNL1        0.0347
     24 C           4.7364   44.5235    7.8088 C.3     1  UNL1        0.0346
     25 C           4.1323   43.6549    8.8869 C.3     1  UNL1        0.1422
     26 O           5.0237   42.6077    9.1610 O.3     1  UNL1       -0.3537
@<TRIPOS>BOND
     1    14    11    1
     2    14    12    1
     3    14    13    1
     4    14     1    1
     5     2     3   ar
     6     4     5   ar
     7     5     8   ar
     8     6    16    1
     9     6     4   ar
    10    19    15    1
    11    19    20    1
    12    21    20    1
    13    22    21    1
    14    22    23    1
    15    22    26    1
    16    23    24    1
    17    24    25    1
    18    25    26    1
    19     7     1   ar
    20     8     9   ar
    21    16    15   am
    22     1     2   ar
    23     3     4   ar
    24     5     7   ar
    25     6     9   ar
    26    15    17    2
    27     8    10    1
    28    16    18    1
@<TRIPOS>MOLECULE
MolPort-051-449-184 CSSS09880959523 MCULE-2042059605 PubChem-162638207
 26 28 0 0 0
SMALL
GASTEIGER

@<TRIPOS>ATOM
      1 C          13.5349   38.0990   10.4137 C.ar    1  UNL1        0.0729
      2 C          13.2743   39.2573   11.1912 C.ar    1  UNL1        0.0040
      3 C          12.1901   40.1028   10.8916 C.ar    1  UNL1        0.0043
      4 C          11.3954   39.7492    9.8064 C.ar    1  UNL1        0.0504
      5 C          11.6348   38.6385    9.0504 C.ar    1  UNL1        0.0766
      6 C          10.2866   40.3189    9.2376 C.ar    1  UNL1        0.1551
      7 C          12.6986   37.7826    9.3205 C.ar    1  UNL1        0.0224
      8 N          10.7200   38.5314    8.0688 N.ar    1  UNL1       -0.2745
      9 N           9.8902   39.5658    8.1848 N.ar    1  UNL1       -0.1574
     10 H          10.6733   37.8195    7.3903 H       1  UNL1        0.1890
     11 F          15.8514   37.6384   10.1174 F       1  UNL1       -0.1659
     12 F          14.8995   37.1902   12.1064 F       1  UNL1       -0.1659
     13 F          14.4168   35.9160   10.3119 F       1  UNL1       -0.1659
     14 C          14.6935   37.2018   10.7389 C.3     1  UNL1        0.4186
     15 C          10.1826   42.8325    9.5504 C.2     1  UNL1        0.2574
     16 N           9.6407   41.5152    9.6853 N.am    1  UNL1       -0.2659
     17 O          11.3181   43.0188    9.0383 O.2     1  UNL1       -0.2720
     18 H           8.7604   41.4252   10.1168 H       1  UNL1        0.1564
     19 C           9.4091   43.9967   10.0581 C.3     1  UNL1        0.2273
     20 O           8.0436   43.7375    9.9445 O.3     1  UNL1       -0.3418
     21 C           7.6592   44.3910    8.7729 C.3     1  UNL1        0.1721
     22 C           6.3297   43.8444    8.2847 C.3     1  UNL1        0.1448
     23 C           5.9485   42.6047    9.0642 C.3     1  UNL1        0.0347
     24 C           4.4775   42.7659    9.3014 C.3     1  UNL1        0.0346
     25 C           4.1416   44.0720    8.6212 C.3     1  UNL1        0.1422
     26 O           5.3261   44.8065    8.4665 O.3     1  UNL1       -0.3537
@<TRIPOS>BOND
     1    14    11    1
     2    14    12    1
     3    14    13    1
     4    14     1    1
     5     2     3   ar
     6     4     5   ar
     7     5     8   ar
     8     6    16    1
     9     6     4   ar
    10    19    15    1
    11    19    20    1
    12    21    20    1
    13    22    21    1
    14    22    23    1
    15    22    26    1
    16    23    24    1
    17    24    25    1
    18    25    26    1
    19     7     1   ar
    20     8     9   ar
    21    16    15   am
    22     1     2   ar
    23     3     4   ar
    24     5     7   ar
    25     6     9   ar
    26    15    17    2
    27     8    10    1
    28    16    18    1
@<TRIPOS>MOLECULE
MolPort-051-449-184 CSSS09880959523 MCULE-2042059605 PubChem-162638207
 26 28 0 0 0
SMALL
GASTEIGER

@<TRIPOS>ATOM
      1 C           4.7568   41.7700   10.3836 C.ar    1  UNL1        0.0729
      2 C           5.9816   41.3254   10.9458 C.ar    1  UNL1        0.0040
      3 C           7.1938   41.4638   10.2447 C.ar    1  UNL1        0.0043
      4 C           7.1311   42.0524    8.9861 C.ar    1  UNL1        0.0504
      5 C           5.9602   42.4841    8.4337 C.ar    1  UNL1        0.0766
      6 C           8.0824   42.3415    8.0434 C.ar    1  UNL1        0.1551
      7 C           4.7450   42.3614    9.1011 C.ar    1  UNL1        0.0224
      8 N           6.1812   43.0117    7.2152 N.ar    1  UNL1       -0.2745
      9 N           7.4877   42.9240    6.9757 N.ar    1  UNL1       -0.1574
     10 H           5.5021   43.3921    6.6125 H       1  UNL1        0.1890
     11 F           3.4740   40.4697   11.9099 F       1  UNL1       -0.1659
     12 F           3.2853   42.7113   11.9654 F       1  UNL1       -0.1659
     13 F           2.4149   41.5480   10.2431 F       1  UNL1       -0.1659
     14 C           3.4675   41.6188   11.1372 C.3     1  UNL1        0.4186
     15 C          10.3573   42.7323    9.0917 C.2     1  UNL1        0.2574
     16 N           9.4842   42.0794    8.1651 N.am    1  UNL1       -0.2659
     17 O           9.9311   43.6331    9.8620 O.2     1  UNL1       -0.2720
     18 H           9.8758   41.4012    7.5684 H       1  UNL1        0.1564
     19 C          11.7988   42.3681    9.1189 C.3     1  UNL1        0.2273
     20 O          11.9319   40.9800    9.1022 O.3     1  UNL1       -0.3418
     21 C          12.1697   40.6348   10.4331 C.3     1  UNL1        0.1721
     22 C          13.1794   39.5034   10.5046 C.3     1  UNL1        0.1448
     23 C          14.4220   39.8520    9.7147 C.3     1  UNL1        0.0347
     24 C          15.5462   39.3614   10.5758 C.3     1  UNL1        0.0346
     25 C          14.8495   38.7579   11.7725 C.3     1  UNL1        0.1422
     26 O          13.5511   39.2832   11.8385 O.3     1  UNL1       -0.3537
@<TRIPOS>BOND
     1    14    11    1
     2    14    12    1
     3    14    13    1
     4    14     1    1
     5     2     3   ar
     6     4     5   ar
     7     5     8   ar
     8     6    16    1
     9     6     4   ar
    10    19    15    1
    11    19    20    1
    12    21    20    1
    13    22    21    1
    14    22    23    1
    15    22    26    1
    16    23    24    1
    17    24    25    1
    18    25    26    1
    19     7     1   ar
    20     8     9   ar
    21    16    15   am
    22     1     2   ar
    23     3     4   ar
    24     5     7   ar
    25     6     9   ar
    26    15    17    2
    27     8    10    1
    28    16    18    1
@<TRIPOS>MOLECULE
MolPort-051-449-184 CSSS09880959523 MCULE-2042059605 PubChem-162638207
 26 28 0 0 0
SMALL
GASTEIGER

@<TRIPOS>ATOM
      1 C          15.8855   41.7638    8.2739 C.ar    1  UNL1        0.0729
      2 C          15.1617   40.7319    8.9258 C.ar    1  UNL1        0.0040
      3 C          13.8344   40.4368    8.5632 C.ar    1  UNL1        0.0043
      4 C          13.2742   41.1998    7.5442 C.ar    1  UNL1        0.0504
      5 C          13.9590   42.1950    6.9093 C.ar    1  UNL1        0.0766
      6 C          12.0420   41.1948    6.9452 C.ar    1  UNL1        0.1551
      7 C          15.2721   42.5114    7.2447 C.ar    1  UNL1        0.0224
      8 N          13.1873   42.7709    5.9686 N.ar    1  UNL1       -0.2745
      9 N          12.0076   42.1546    5.9909 N.ar    1  UNL1       -0.1574
     10 H          13.4473   43.5111    5.3739 H       1  UNL1        0.1890
     11 F          17.3745   43.2661    9.3660 F       1  UNL1       -0.1659
     12 F          17.7917   41.0572    9.4658 F       1  UNL1       -0.1659
     13 F          18.0840   42.1743    7.5309 F       1  UNL1       -0.1659
     14 C          17.3009   42.0733    8.6663 C.3     1  UNL1        0.4186
     15 C          10.3364   39.4193    6.3406 C.2     1  UNL1        0.2574
     16 N          10.9615   40.3129    7.2668 N.am    1  UNL1       -0.2659
     17 O          10.6948   39.3790    5.1338 O.2     1  UNL1       -0.2720
     18 H          10.6242   40.3219    8.1917 H       1  UNL1        0.1564
     19 C           9.2200   38.5518    6.8016 C.3     1  UNL1        0.2273
     20 O           8.2242   39.3378    7.3807 O.3     1  UNL1       -0.3418
     21 C           7.3465   39.6193    6.3330 C.3     1  UNL1        0.1721
     22 C           6.6479   40.9440    6.5814 C.3     1  UNL1        0.1448
     23 C           7.1322   41.5638    7.8741 C.3     1  UNL1        0.0347
     24 C           7.2694   43.0199    7.5468 C.3     1  UNL1        0.0346
     25 C           6.8336   43.1097    6.1033 C.3     1  UNL1        0.1422
     26 O           6.9289   41.8320    5.5333 O.3     1  UNL1       -0.3537
@<TRIPOS>BOND
     1    14    11    1
     2    14    12    1
     3    14    13    1
     4    14     1    1
     5     2     3   ar
     6     4     5   ar
     7     5     8   ar
     8     6    16    1
     9     6     4   ar
    10    19    15    1
    11    19    20    1
    12    21    20    1
    13    22    21    1
    14    22    23    1
    15    22    26    1
    16    23    24    1
    17    24    25    1
    18    25    26    1
    19     7     1   ar
    20     8     9   ar
    21    16    15   am
    22     1     2   ar
    23     3     4   ar
    24     5     7   ar
    25     6     9   ar
    26    15    17    2
    27     8    10    1
    28    16    18    1
@<TRIPOS>MOLECULE
MolPort-051-449-184 CSSS09880959523 MCULE-2042059605 PubChem-162638207
 26 28 0 0 0
SMALL
GASTEIGER

@<TRIPOS>ATOM
      1 C           4.4115   41.9982   10.3642 C.ar    1  UNL1        0.0729
      2 C           5.7069   41.4842   10.6318 C.ar    1  UNL1        0.0040
      3 C           6.8037   41.8230    9.8178 C.ar    1  UNL1        0.0043
      4 C           6.5561   42.6782    8.7494 C.ar    1  UNL1        0.0504
      5 C           5.3155   43.1795    8.4808 C.ar    1  UNL1        0.0766
      6 C           7.3590   43.2085    7.7740 C.ar    1  UNL1        0.1551
      7 C           4.2108   42.8634    9.2662 C.ar    1  UNL1        0.0224
      8 N           5.3548   43.9768    7.3970 N.ar    1  UNL1       -0.2745
      9 N           6.6129   43.9946    6.9626 N.ar    1  UNL1       -0.1574
     10 H           4.5936   44.4580    6.9991 H       1  UNL1        0.1890
     11 F           3.0426   42.5842   12.2215 F       1  UNL1       -0.1659
     12 F           2.1023   41.5388   10.4647 F       1  UNL1       -0.1659
     13 F           3.4858   40.4114   11.8403 F       1  UNL1       -0.1659
     14 C           3.2461   41.6322   11.2366 C.3     1  UNL1        0.4186
     15 C           9.3494   41.7445    7.2067 C.2     1  UNL1        0.2574
     16 N           8.7648   42.9785    7.6341 N.am    1  UNL1       -0.2659
     17 O           8.6333   40.7409    6.9492 O.2     1  UNL1       -0.2720
     18 H           9.3731   43.7227    7.8473 H       1  UNL1        0.1564
     19 C          10.8287   41.6341    7.1018 C.3     1  UNL1        0.2273
     20 O          11.1907   41.4391    5.7692 O.3     1  UNL1       -0.3418
     21 C          11.1294   40.0568    5.5882 C.3     1  UNL1        0.1721
     22 C          10.6788   39.7369    4.1742 C.3     1  UNL1        0.1448
     23 C          11.2181   38.3920    3.7382 C.3     1  UNL1        0.0347
     24 C          10.0708   37.7631    3.0072 C.3     1  UNL1        0.0346
     25 C           8.9830   38.8092    3.0713 C.3     1  UNL1        0.1422
     26 O           9.2784   39.6893    4.1222 O.3     1  UNL1       -0.3537
@<TRIPOS>BOND
     1    14    11    1
     2    14    12    1
     3    14    13    1
     4    14     1    1
     5     2     3   ar
     6     4     5   ar
     7     5     8   ar
     8     6    16    1
     9     6     4   ar
    10    19    15    1
    11    19    20    1
    12    21    20    1
    13    22    21    1
    14    22    23    1
    15    22    26    1
    16    23    24    1
    17    24    25    1
    18    25    26    1
    19     7     1   ar
    20     8     9   ar
    21    16    15   am
    22     1     2   ar
    23     3     4   ar
    24     5     7   ar
    25     6     9   ar
    26    15    17    2
    27     8    10    1
    28    16    18    1
