@<TRIPOS>MOLECULE
MolPort-020-269-161 19749405 MCULE-9600677370 PubChem-92634656 ZINC000019749405 ZINC19749405
 31 33 0 0 0
SMALL
GASTEIGER

@<TRIPOS>ATOM
      1 C           9.6259   41.8416    9.1340 C.ar    1  UNL1        0.1119
      2 C           8.6555   42.7523    9.4988 C.ar    1  UNL1        0.0905
      3 C           9.2815   43.8064   10.1312 C.ar    1  UNL1        0.1363
      4 N          10.7918   42.3695    9.5458 N.ar    1  UNL1       -0.2387
      5 N          10.6007   43.5336   10.1460 N.ar    1  UNL1       -0.1658
      6 C           6.6266   42.1099    8.1076 C.2     1  UNL1        0.2307
      7 N           7.2445   42.6484    9.2811 N.am    1  UNL1       -0.2812
      8 O           7.3186   41.6687    7.1521 O.2     1  UNL1       -0.2744
      9 H           6.6512   42.9737    9.9962 H       1  UNL1        0.1550
     10 C           5.1396   42.0968    8.0056 C.3     1  UNL1        0.1139
     11 C           4.5241   41.8465    9.3431 C.ar    1  UNL1        0.0144
     12 C           4.8400   40.6740   10.0406 C.ar    1  UNL1       -0.0016
     13 C           4.2831   40.4338   11.2999 C.ar    1  UNL1       -0.0002
     14 C           3.4105   41.3673   11.8675 C.ar    1  UNL1        0.0023
     15 C           3.0958   42.5412   11.1772 C.ar    1  UNL1        0.0293
     16 C           3.6515   42.7851    9.9172 C.ar    1  UNL1        0.1366
     17 F           3.3389   43.9307    9.2610 F       1  UNL1       -0.2045
     18 C          12.0928   41.7347    9.4056 C.3     1  UNL1        0.2121
     19 C          13.2450   38.4210   11.0720 C.3     1  UNL1        0.1152
     20 C          12.2179   40.5919   10.3630 C.2     1  UNL1        0.2508
     21 N          13.1508   39.5241   10.1285 N.am    1  UNL1       -0.2720
     22 O          11.4827   40.5746   11.3872 O.2     1  UNL1       -0.2727
     23 C          13.9549   39.4538    8.9134 C.3     1  UNL1        0.1226
     24 C          16.5188   38.6241   10.6524 C.3     1  UNL1        0.0537
     25 C          16.3602   39.8442    9.8150 C.ar    1  UNL1        0.0777
     26 C          15.2454   40.1981    9.0725 C.ar    1  UNL1        0.0261
     27 C          15.6050   41.3770    8.4541 C.ar    1  UNL1        0.0548
     28 C          17.6168   42.8605    8.4184 C.3     1  UNL1        0.1533
     29 C          14.7652   42.1775    7.5158 C.3     1  UNL1        0.0515
     30 N          16.8578   41.6932    8.8338 N.ar    1  UNL1       -0.2534
     31 N          17.3278   40.7700    9.6574 N.ar    1  UNL1       -0.1742
@<TRIPOS>BOND
     1    24    25    1
     2    25    26   ar
     3    27    30   ar
     4    28    30    1
     5    29    27    1
     6    23    26    1
     7    23    21    1
     8    19    21    1
     9    18    20    1
    10    18     4    1
    11     2     3   ar
    12     2     7    1
    13    10     6    1
    14    10    11    1
    15    12    13   ar
    16    14    15   ar
    17    16    17    1
    18    16    11   ar
    19    30    31   ar
    20    21    20   am
    21     4     1   ar
    22     4     5   ar
    23     7     6   am
    24    25    31   ar
    25    26    27   ar
    26    20    22    2
    27     1     2   ar
    28     3     5   ar
    29     6     8    2
    30    11    12   ar
    31    13    14   ar
    32    15    16   ar
    33     7     9    1
@<TRIPOS>MOLECULE
MolPort-020-269-161 19749405 MCULE-9600677370 PubChem-92634656 ZINC000019749405 ZINC19749405
 31 33 0 0 0
SMALL
GASTEIGER

@<TRIPOS>ATOM
      1 C          10.0545   41.5736    6.7517 C.ar    1  UNL1        0.1119
      2 C          11.2443   41.0497    6.2892 C.ar    1  UNL1        0.0905
      3 C          11.1376   39.6746    6.3114 C.ar    1  UNL1        0.1363
      4 N           9.2750   40.5140    7.0288 N.ar    1  UNL1       -0.2387
      5 N           9.9088   39.3793    6.7782 N.ar    1  UNL1       -0.1658
      6 C          13.1013   42.7501    6.6426 C.2     1  UNL1        0.2307
      7 N          12.4022   41.7750    5.8621 N.am    1  UNL1       -0.2812
      8 O          12.7264   43.0397    7.8097 O.2     1  UNL1       -0.2744
      9 H          12.7455   41.5880    4.9585 H       1  UNL1        0.1550
     10 C          14.2758   43.4528    6.0524 C.3     1  UNL1        0.1139
     11 C          15.4819   43.2743    6.9150 C.ar    1  UNL1        0.0144
     12 C          15.5901   42.1369    7.7246 C.ar    1  UNL1       -0.0016
     13 C          16.7202   41.9494    8.5256 C.ar    1  UNL1       -0.0002
     14 C          17.7477   42.8977    8.5171 C.ar    1  UNL1        0.0023
     15 C          17.6463   44.0323    7.7071 C.ar    1  UNL1        0.0293
     16 C          16.5173   44.2229    6.9040 C.ar    1  UNL1        0.1366
     17 F          16.4350   45.3276    6.1208 F       1  UNL1       -0.2045
     18 C           7.9314   40.5860    7.5809 C.3     1  UNL1        0.2121
     19 C           6.1248   43.9193    6.7381 C.3     1  UNL1        0.1152
     20 C           7.1331   41.6308    6.8672 C.2     1  UNL1        0.2508
     21 N           6.9124   42.9256    7.4508 N.am    1  UNL1       -0.2720
     22 O           6.6465   41.3564    5.7368 O.2     1  UNL1       -0.2727
     23 C           7.3762   43.2568    8.7936 C.3     1  UNL1        0.1226
     24 C           8.5918   41.4547   11.1517 C.3     1  UNL1        0.0537
     25 C           7.1528   41.6962   10.8588 C.ar    1  UNL1        0.0777
     26 C           6.6366   42.4710    9.8328 C.ar    1  UNL1        0.0261
     27 C           5.2704   42.4087   10.0096 C.ar    1  UNL1        0.0548
     28 C           3.7017   41.2905   11.6027 C.3     1  UNL1        0.1533
     29 C           4.2371   43.0912    9.1771 C.3     1  UNL1        0.0515
     30 N           5.0133   41.6252   11.0743 N.ar    1  UNL1       -0.2534
     31 N           6.1469   41.1888   11.5997 N.ar    1  UNL1       -0.1742
@<TRIPOS>BOND
     1    24    25    1
     2    25    26   ar
     3    27    30   ar
     4    28    30    1
     5    29    27    1
     6    23    26    1
     7    23    21    1
     8    19    21    1
     9    18    20    1
    10    18     4    1
    11     2     3   ar
    12     2     7    1
    13    10     6    1
    14    10    11    1
    15    12    13   ar
    16    14    15   ar
    17    16    17    1
    18    16    11   ar
    19    30    31   ar
    20    21    20   am
    21     4     1   ar
    22     4     5   ar
    23     7     6   am
    24    25    31   ar
    25    26    27   ar
    26    20    22    2
    27     1     2   ar
    28     3     5   ar
    29     6     8    2
    30    11    12   ar
    31    13    14   ar
    32    15    16   ar
    33     7     9    1
@<TRIPOS>MOLECULE
MolPort-020-269-161 19749405 MCULE-9600677370 PubChem-92634656 ZINC000019749405 ZINC19749405
 31 33 0 0 0
SMALL
GASTEIGER

@<TRIPOS>ATOM
      1 C          11.8631   41.3718    9.6500 C.ar    1  UNL1        0.1119
      2 C          13.0279   40.6954    9.3504 C.ar    1  UNL1        0.0905
      3 C          12.8610   39.3789    9.7274 C.ar    1  UNL1        0.1363
      4 N          11.0384   40.4547   10.1850 N.ar    1  UNL1       -0.2387
      5 N          11.6214   39.2678   10.2431 N.ar    1  UNL1       -0.1658
      6 C          15.5538   40.8899    9.1342 C.2     1  UNL1        0.2307
      7 N          14.2156   41.2347    8.7609 N.am    1  UNL1       -0.2812
      8 O          15.7791   40.0475   10.0432 O.2     1  UNL1       -0.2744
      9 H          14.1031   41.8961    8.0404 H       1  UNL1        0.1550
     10 C          16.6978   41.5602    8.4534 C.3     1  UNL1        0.1139
     11 C          16.2066   42.6201    7.5229 C.ar    1  UNL1        0.0144
     12 C          14.9502   42.4823    6.9202 C.ar    1  UNL1       -0.0016
     13 C          14.4715   43.4737    6.0590 C.ar    1  UNL1       -0.0002
     14 C          15.2466   44.6082    5.8001 C.ar    1  UNL1        0.0023
     15 C          16.4993   44.7524    6.4030 C.ar    1  UNL1        0.0293
     16 C          16.9813   43.7627    7.2656 C.ar    1  UNL1        0.1366
     17 F          18.1978   43.9187    7.8458 F       1  UNL1       -0.2045
     18 C           9.7003   40.7250   10.6867 C.3     1  UNL1        0.2121
     19 C           8.2670   44.2980   10.1724 C.3     1  UNL1        0.1152
     20 C           9.4790   42.1999   10.8046 C.2     1  UNL1        0.2508
     21 N           8.4540   42.8612   10.0445 N.am    1  UNL1       -0.2720
     22 O          10.2147   42.8639   11.5842 O.2     1  UNL1       -0.2727
     23 C           7.6412   42.1515    9.0629 C.3     1  UNL1        0.1226
     24 C           5.2464   41.3957   11.0579 C.3     1  UNL1        0.0537
     25 C           5.1943   42.3472    9.9147 C.ar    1  UNL1        0.0777
     26 C           6.2327   42.6621    9.0532 C.ar    1  UNL1        0.0261
     27 C           5.6983   43.6068    8.2026 C.ar    1  UNL1        0.0548
     28 C           3.4831   44.7265    7.9052 C.3     1  UNL1        0.1533
     29 C           6.4090   44.2982    7.0875 C.3     1  UNL1        0.0515
     30 N           4.4131   43.8135    8.5477 N.ar    1  UNL1       -0.2534
     31 N           4.0960   43.0571    9.5864 N.ar    1  UNL1       -0.1742
@<TRIPOS>BOND
     1    24    25    1
     2    25    26   ar
     3    27    30   ar
     4    28    30    1
     5    29    27    1
     6    23    26    1
     7    23    21    1
     8    19    21    1
     9    18    20    1
    10    18     4    1
    11     2     3   ar
    12     2     7    1
    13    10     6    1
    14    10    11    1
    15    12    13   ar
    16    14    15   ar
    17    16    17    1
    18    16    11   ar
    19    30    31   ar
    20    21    20   am
    21     4     1   ar
    22     4     5   ar
    23     7     6   am
    24    25    31   ar
    25    26    27   ar
    26    20    22    2
    27     1     2   ar
    28     3     5   ar
    29     6     8    2
    30    11    12   ar
    31    13    14   ar
    32    15    16   ar
    33     7     9    1
@<TRIPOS>MOLECULE
MolPort-020-269-161 19749405 MCULE-9600677370 PubChem-92634656 ZINC000019749405 ZINC19749405
 31 33 0 0 0
SMALL
GASTEIGER

@<TRIPOS>ATOM
      1 C           9.6709   40.7600    6.4088 C.ar    1  UNL1        0.1119
      2 C          10.8196   40.4403    5.7143 C.ar    1  UNL1        0.0905
      3 C          10.4477   40.0100    4.4575 C.ar    1  UNL1        0.1363
      4 N           8.6558   40.5224    5.5599 N.ar    1  UNL1       -0.2387
      5 N           9.1031   40.0698    4.3992 N.ar    1  UNL1       -0.1658
      6 C          12.6183   41.3514    7.2631 C.2     1  UNL1        0.2307
      7 N          12.1685   40.5225    6.1864 N.am    1  UNL1       -0.2812
      8 O          11.8166   42.0899    7.8944 O.2     1  UNL1       -0.2744
      9 H          12.8411   39.9639    5.7340 H       1  UNL1        0.1550
     10 C          14.0645   41.3595    7.6238 C.3     1  UNL1        0.1139
     11 C          14.7357   42.5749    7.0734 C.ar    1  UNL1        0.0144
     12 C          14.0909   43.3345    6.0894 C.ar    1  UNL1       -0.0016
     13 C          14.7006   44.4827    5.5762 C.ar    1  UNL1       -0.0002
     14 C          15.9565   44.8770    6.0477 C.ar    1  UNL1        0.0023
     15 C          16.6019   44.1248    7.0332 C.ar    1  UNL1        0.0293
     16 C          15.9946   42.9756    7.5493 C.ar    1  UNL1        0.1366
     17 F          16.6323   42.2577    8.5078 F       1  UNL1       -0.2045
     18 C           7.2457   40.6852    5.8764 C.3     1  UNL1        0.2121
     19 C           6.0825   43.7109    8.0160 C.3     1  UNL1        0.1152
     20 C           6.9755   42.0833    6.3354 C.2     1  UNL1        0.2508
     21 N           6.3409   42.3416    7.5989 N.am    1  UNL1       -0.2720
     22 O           7.3107   43.0428    5.5893 O.2     1  UNL1       -0.2727
     23 C           5.8528   41.2642    8.4526 C.3     1  UNL1        0.1226
     24 C           4.1891   41.4944   11.1849 C.3     1  UNL1        0.0537
     25 C           5.6698   41.4890   11.0346 C.ar    1  UNL1        0.0777
     26 C           6.3801   41.3964    9.8487 C.ar    1  UNL1        0.0261
     27 C           7.7024   41.3953   10.2399 C.ar    1  UNL1        0.0548
     28 C           8.9494   41.5378   12.4019 C.3     1  UNL1        0.1533
     29 C           8.8914   41.2928    9.3442 C.3     1  UNL1        0.0515
     30 N           7.7505   41.4976   11.5819 N.ar    1  UNL1       -0.2534
     31 N           6.5240   41.5528   12.0760 N.ar    1  UNL1       -0.1742
@<TRIPOS>BOND
     1    24    25    1
     2    25    26   ar
     3    27    30   ar
     4    28    30    1
     5    29    27    1
     6    23    26    1
     7    23    21    1
     8    19    21    1
     9    18    20    1
    10    18     4    1
    11     2     3   ar
    12     2     7    1
    13    10     6    1
    14    10    11    1
    15    12    13   ar
    16    14    15   ar
    17    16    17    1
    18    16    11   ar
    19    30    31   ar
    20    21    20   am
    21     4     1   ar
    22     4     5   ar
    23     7     6   am
    24    25    31   ar
    25    26    27   ar
    26    20    22    2
    27     1     2   ar
    28     3     5   ar
    29     6     8    2
    30    11    12   ar
    31    13    14   ar
    32    15    16   ar
    33     7     9    1
@<TRIPOS>MOLECULE
MolPort-020-269-161 19749405 MCULE-9600677370 PubChem-92634656 ZINC000019749405 ZINC19749405
 31 33 0 0 0
SMALL
GASTEIGER

@<TRIPOS>ATOM
      1 C          11.0947   40.0010    6.9252 C.ar    1  UNL1        0.1119
      2 C          12.1927   40.4533    7.6278 C.ar    1  UNL1        0.0905
      3 C          12.0396   40.0698    8.9440 C.ar    1  UNL1        0.1363
      4 N          10.3267   39.3619    7.8246 N.ar    1  UNL1       -0.2387
      5 N          10.8732   39.4012    9.0296 N.ar    1  UNL1       -0.1658
      6 C          13.2308   42.5081    6.5484 C.2     1  UNL1        0.2307
      7 N          13.3040   41.1955    7.1145 N.am    1  UNL1       -0.2812
      8 O          12.1337   43.1217    6.4683 O.2     1  UNL1       -0.2744
      9 H          14.1903   40.7685    7.1541 H       1  UNL1        0.1550
     10 C          14.4702   43.1464    6.0211 C.3     1  UNL1        0.1139
     11 C          15.5704   43.0672    7.0280 C.ar    1  UNL1        0.0144
     12 C          15.6123   41.9905    7.9223 C.ar    1  UNL1       -0.0016
     13 C          16.6445   41.8956    8.8600 C.ar    1  UNL1       -0.0002
     14 C          17.6405   42.8760    8.9042 C.ar    1  UNL1        0.0023
     15 C          17.6055   43.9500    8.0104 C.ar    1  UNL1        0.0293
     16 C          16.5744   44.0479    7.0706 C.ar    1  UNL1        0.1366
     17 F          16.5561   45.0947    6.2077 F       1  UNL1       -0.2045
     18 C           9.0388   38.7493    7.5393 C.3     1  UNL1        0.2121
     19 C           6.9215   41.6477    6.0557 C.3     1  UNL1        0.1152
     20 C           8.2606   39.5990    6.5851 C.2     1  UNL1        0.2508
     21 N           7.6807   40.8461    7.0026 N.am    1  UNL1       -0.2720
     22 O           8.1139   39.2005    5.3979 O.2     1  UNL1       -0.2727
     23 C           7.7450   41.3028    8.3865 C.3     1  UNL1        0.1226
     24 C           8.1585   44.4763    8.5970 C.3     1  UNL1        0.0537
     25 C           6.8812   43.7268    8.7452 C.ar    1  UNL1        0.0777
     26 C           6.7134   42.3542    8.6598 C.ar    1  UNL1        0.0261
     27 C           5.3580   42.1632    8.8275 C.ar    1  UNL1        0.0548
     28 C           3.3636   43.6139    9.2362 C.3     1  UNL1        0.1533
     29 C           4.6375   40.8568    8.8023 C.3     1  UNL1        0.0515
     30 N           4.7778   43.3639    9.0152 N.ar    1  UNL1       -0.2534
     31 N           5.6908   44.3207    8.9651 N.ar    1  UNL1       -0.1742
@<TRIPOS>BOND
     1    24    25    1
     2    25    26   ar
     3    27    30   ar
     4    28    30    1
     5    29    27    1
     6    23    26    1
     7    23    21    1
     8    19    21    1
     9    18    20    1
    10    18     4    1
    11     2     3   ar
    12     2     7    1
    13    10     6    1
    14    10    11    1
    15    12    13   ar
    16    14    15   ar
    17    16    17    1
    18    16    11   ar
    19    30    31   ar
    20    21    20   am
    21     4     1   ar
    22     4     5   ar
    23     7     6   am
    24    25    31   ar
    25    26    27   ar
    26    20    22    2
    27     1     2   ar
    28     3     5   ar
    29     6     8    2
    30    11    12   ar
    31    13    14   ar
    32    15    16   ar
    33     7     9    1
@<TRIPOS>MOLECULE
MolPort-020-269-161 19749405 MCULE-9600677370 PubChem-92634656 ZINC000019749405 ZINC19749405
 31 33 0 0 0
SMALL
GASTEIGER

@<TRIPOS>ATOM
      1 C          11.0754   42.0152    9.5392 C.ar    1  UNL1        0.1119
      2 C          12.3338   41.5102    9.2835 C.ar    1  UNL1        0.0905
      3 C          12.5023   40.3823   10.0596 C.ar    1  UNL1        0.1363
      4 N          10.5283   41.1850   10.4440 N.ar    1  UNL1       -0.2387
      5 N          11.3681   40.2142   10.7671 N.ar    1  UNL1       -0.1658
      6 C          13.0777   42.3962    7.0194 C.2     1  UNL1        0.2307
      7 N          13.3142   42.0410    8.3856 N.am    1  UNL1       -0.2812
      8 O          11.9379   42.2623    6.5003 O.2     1  UNL1       -0.2744
      9 H          14.2248   42.1724    8.7362 H       1  UNL1        0.1550
     10 C          14.2069   42.9073    6.1914 C.3     1  UNL1        0.1139
     11 C          15.4472   43.0303    7.0144 C.ar    1  UNL1        0.0144
     12 C          15.8469   41.9613    7.8257 C.ar    1  UNL1       -0.0016
     13 C          17.0135   42.0568    8.5896 C.ar    1  UNL1       -0.0002
     14 C          17.7863   43.2211    8.5422 C.ar    1  UNL1        0.0023
     15 C          17.3939   44.2890    7.7302 C.ar    1  UNL1        0.0293
     16 C          16.2274   44.1967    6.9642 C.ar    1  UNL1        0.1366
     17 F          15.8615   45.2405    6.1785 F       1  UNL1       -0.2045
     18 C           9.2109   41.3471   11.0385 C.3     1  UNL1        0.2121
     19 C           6.9221   43.6948    8.9565 C.3     1  UNL1        0.1152
     20 C           8.5458   42.5735   10.4982 C.2     1  UNL1        0.2508
     21 N           7.5460   42.4851    9.4694 N.am    1  UNL1       -0.2720
     22 O           8.8807   43.6986   10.9583 O.2     1  UNL1       -0.2727
     23 C           7.1930   41.2162    8.8424 C.3     1  UNL1        0.1226
     24 C           6.9865   42.9942    6.1812 C.3     1  UNL1        0.0537
     25 C           7.8437   41.7965    6.3949 C.ar    1  UNL1        0.0777
     26 C           7.9210   41.0299    7.5463 C.ar    1  UNL1        0.0261
     27 C           8.8715   40.0732    7.2585 C.ar    1  UNL1        0.0548
     28 C          10.3064   39.4809    5.2991 C.3     1  UNL1        0.1533
     29 C           9.3524   38.9982    8.1748 C.3     1  UNL1        0.0515
     30 N           9.3077   40.2702    5.9997 N.ar    1  UNL1       -0.2534
     31 N           8.6937   41.3140    5.4659 N.ar    1  UNL1       -0.1742
@<TRIPOS>BOND
     1    24    25    1
     2    25    26   ar
     3    27    30   ar
     4    28    30    1
     5    29    27    1
     6    23    26    1
     7    23    21    1
     8    19    21    1
     9    18    20    1
    10    18     4    1
    11     2     3   ar
    12     2     7    1
    13    10     6    1
    14    10    11    1
    15    12    13   ar
    16    14    15   ar
    17    16    17    1
    18    16    11   ar
    19    30    31   ar
    20    21    20   am
    21     4     1   ar
    22     4     5   ar
    23     7     6   am
    24    25    31   ar
    25    26    27   ar
    26    20    22    2
    27     1     2   ar
    28     3     5   ar
    29     6     8    2
    30    11    12   ar
    31    13    14   ar
    32    15    16   ar
    33     7     9    1
@<TRIPOS>MOLECULE
MolPort-020-269-161 19749405 MCULE-9600677370 PubChem-92634656 ZINC000019749405 ZINC19749405
 31 33 0 0 0
SMALL
GASTEIGER

@<TRIPOS>ATOM
      1 C          10.4909   40.9006    8.7752 C.ar    1  UNL1        0.1119
      2 C           9.4483   41.7633    9.0453 C.ar    1  UNL1        0.0905
      3 C           9.9614   42.8449    9.7307 C.ar    1  UNL1        0.1363
      4 N          11.5866   41.4828    9.2927 N.ar    1  UNL1       -0.2387
      5 N          11.2850   42.6354    9.8694 N.ar    1  UNL1       -0.1658
      6 C           7.1961   42.6333    8.2482 C.2     1  UNL1        0.2307
      7 N           8.0704   41.5926    8.6970 N.am    1  UNL1       -0.2812
      8 O           7.6060   43.8176    8.1211 O.2     1  UNL1       -0.2744
      9 H           7.6936   40.6862    8.7722 H       1  UNL1        0.1550
     10 C           5.7706   42.3133    7.9530 C.3     1  UNL1        0.1139
     11 C           5.0194   42.0500    9.2167 C.ar    1  UNL1        0.0144
     12 C           5.4718   41.0582   10.0955 C.ar    1  UNL1       -0.0016
     13 C           4.7873   40.8114   11.2889 C.ar    1  UNL1       -0.0002
     14 C           3.6494   41.5582   11.6090 C.ar    1  UNL1        0.0023
     15 C           3.1967   42.5525   10.7371 C.ar    1  UNL1        0.0293
     16 C           3.8794   42.8025    9.5424 C.ar    1  UNL1        0.1366
     17 F           3.4296   43.7731    8.7080 F       1  UNL1       -0.2045
     18 C          12.9239   40.9111    9.2763 C.3     1  UNL1        0.2121
     19 C          14.6424   38.7337   11.9949 C.3     1  UNL1        0.1152
     20 C          13.1693   40.1305   10.5288 C.2     1  UNL1        0.2508
     21 N          14.4346   39.4938   10.7722 N.am    1  UNL1       -0.2720
     22 O          12.2400   40.0328   11.3753 O.2     1  UNL1       -0.2727
     23 C          15.5062   39.5014    9.7825 C.3     1  UNL1        0.1226
     24 C          14.4633   36.7250    8.5617 C.3     1  UNL1        0.0537
     25 C          15.7779   36.9815    9.2105 C.ar    1  UNL1        0.0777
     26 C          16.2172   38.1833    9.7419 C.ar    1  UNL1        0.0261
     27 C          17.4959   37.9161   10.1837 C.ar    1  UNL1        0.0548
     28 C          19.0103   35.9282   10.2449 C.3     1  UNL1        0.1533
     29 C          18.4314   38.8843   10.8270 C.3     1  UNL1        0.0515
     30 N          17.7723   36.6222    9.9331 N.ar    1  UNL1       -0.2534
     31 N          16.7392   36.0449    9.3408 N.ar    1  UNL1       -0.1742
@<TRIPOS>BOND
     1    24    25    1
     2    25    26   ar
     3    27    30   ar
     4    28    30    1
     5    29    27    1
     6    23    26    1
     7    23    21    1
     8    19    21    1
     9    18    20    1
    10    18     4    1
    11     2     3   ar
    12     2     7    1
    13    10     6    1
    14    10    11    1
    15    12    13   ar
    16    14    15   ar
    17    16    17    1
    18    16    11   ar
    19    30    31   ar
    20    21    20   am
    21     4     1   ar
    22     4     5   ar
    23     7     6   am
    24    25    31   ar
    25    26    27   ar
    26    20    22    2
    27     1     2   ar
    28     3     5   ar
    29     6     8    2
    30    11    12   ar
    31    13    14   ar
    32    15    16   ar
    33     7     9    1
@<TRIPOS>MOLECULE
MolPort-020-269-161 19749405 MCULE-9600677370 PubChem-92634656 ZINC000019749405 ZINC19749405
 31 33 0 0 0
SMALL
GASTEIGER

@<TRIPOS>ATOM
      1 C          10.9544   41.2066    7.6526 C.ar    1  UNL1        0.1119
      2 C          12.0340   41.1752    6.7938 C.ar    1  UNL1        0.0905
      3 C          11.5514   40.9911    5.5147 C.ar    1  UNL1        0.1363
      4 N           9.8684   41.0492    6.8759 N.ar    1  UNL1       -0.2387
      5 N          10.2094   40.9132    5.6041 N.ar    1  UNL1       -0.1658
      6 C          13.9769   41.0351    8.4279 C.2     1  UNL1        0.2307
      7 N          13.4180   41.3010    7.1373 N.am    1  UNL1       -0.2812
      8 O          13.2524   40.6509    9.3840 O.2     1  UNL1       -0.2744
      9 H          14.0352   41.5942    6.4286 H       1  UNL1        0.1550
     10 C          15.4362   41.2430    8.6490 C.3     1  UNL1        0.1139
     11 C          15.9427   42.3581    7.7942 C.ar    1  UNL1        0.0144
     12 C          15.0373   43.1233    7.0488 C.ar    1  UNL1       -0.0016
     13 C          15.4957   44.1795    6.2562 C.ar    1  UNL1       -0.0002
     14 C          16.8613   44.4760    6.2090 C.ar    1  UNL1        0.0023
     15 C          17.7683   43.7180    6.9550 C.ar    1  UNL1        0.0293
     16 C          17.3132   42.6608    7.7494 C.ar    1  UNL1        0.1366
     17 F          18.2055   41.9364    8.4703 F       1  UNL1       -0.2045
     18 C           8.4980   40.9821    7.3583 C.3     1  UNL1        0.2121
     19 C           7.1289   41.9802   10.8533 C.3     1  UNL1        0.1152
     20 C           8.4156   41.5009    8.7592 C.2     1  UNL1        0.2508
     21 N           7.1821   41.4606    9.4957 N.am    1  UNL1       -0.2720
     22 O           9.4524   41.9840    9.2897 O.2     1  UNL1       -0.2727
     23 C           5.9374   40.9968    8.8929 C.3     1  UNL1        0.1226
     24 C           3.1653   41.1851   10.4948 C.3     1  UNL1        0.0537
     25 C           3.7193   42.1845    9.5413 C.ar    1  UNL1        0.0777
     26 C           4.9151   42.0911    8.8479 C.ar    1  UNL1        0.0261
     27 C           4.9919   43.2698    8.1361 C.ar    1  UNL1        0.0548
     28 C           3.5680   45.3038    7.8458 C.3     1  UNL1        0.1533
     29 C           6.1031   43.6883    7.2324 C.3     1  UNL1        0.0515
     30 N           3.8888   43.9974    8.3952 N.ar    1  UNL1       -0.2534
     31 N           3.1100   43.3511    9.2480 N.ar    1  UNL1       -0.1742
@<TRIPOS>BOND
     1    24    25    1
     2    25    26   ar
     3    27    30   ar
     4    28    30    1
     5    29    27    1
     6    23    26    1
     7    23    21    1
     8    19    21    1
     9    18    20    1
    10    18     4    1
    11     2     3   ar
    12     2     7    1
    13    10     6    1
    14    10    11    1
    15    12    13   ar
    16    14    15   ar
    17    16    17    1
    18    16    11   ar
    19    30    31   ar
    20    21    20   am
    21     4     1   ar
    22     4     5   ar
    23     7     6   am
    24    25    31   ar
    25    26    27   ar
    26    20    22    2
    27     1     2   ar
    28     3     5   ar
    29     6     8    2
    30    11    12   ar
    31    13    14   ar
    32    15    16   ar
    33     7     9    1
@<TRIPOS>MOLECULE
MolPort-020-269-161 19749405 MCULE-9600677370 PubChem-92634656 ZINC000019749405 ZINC19749405
 31 33 0 0 0
SMALL
GASTEIGER

@<TRIPOS>ATOM
      1 C          11.1002   41.3349    9.7095 C.ar    1  UNL1        0.1119
      2 C          11.6670   40.4914    8.7760 C.ar    1  UNL1        0.0905
      3 C          10.6568   39.7296    8.2264 C.ar    1  UNL1        0.1363
      4 N           9.7834   41.0647    9.6904 N.ar    1  UNL1       -0.2387
      5 N           9.5073   40.1080    8.8184 N.ar    1  UNL1       -0.1658
      6 C          14.1373   40.3163    9.3517 C.2     1  UNL1        0.2307
      7 N          13.0509   40.3948    8.4231 N.am    1  UNL1       -0.2812
      8 O          13.9326   40.3224   10.5945 O.2     1  UNL1       -0.2744
      9 H          13.2734   40.3812    7.4641 H       1  UNL1        0.1550
     10 C          15.5349   40.2539    8.8374 C.3     1  UNL1        0.1139
     11 C          16.0143   41.6155    8.4542 C.ar    1  UNL1        0.0144
     12 C          17.0916   42.1876    9.1420 C.ar    1  UNL1       -0.0016
     13 C          17.5604   43.4548    8.7841 C.ar    1  UNL1       -0.0002
     14 C          16.9551   44.1531    7.7348 C.ar    1  UNL1        0.0023
     15 C          15.8826   43.5842    7.0423 C.ar    1  UNL1        0.0293
     16 C          15.4112   42.3162    7.3973 C.ar    1  UNL1        0.1366
     17 F          14.3713   41.7760    6.7135 F       1  UNL1       -0.2045
     18 C           8.7884   41.6933   10.5448 C.3     1  UNL1        0.2121
     19 C           7.7139   45.1342    9.0989 C.3     1  UNL1        0.1152
     20 C           8.7209   43.1620   10.2681 C.2     1  UNL1        0.2508
     21 N           7.7511   43.7030    9.3557 N.am    1  UNL1       -0.2720
     22 O           9.5381   43.9274   10.8480 O.2     1  UNL1       -0.2727
     23 C           6.8477   42.8488    8.5927 C.3     1  UNL1        0.1226
     24 C           4.4701   44.7054    7.5038 C.3     1  UNL1        0.0537
     25 C           4.4083   43.7422    8.6367 C.ar    1  UNL1        0.0777
     26 C           5.4434   42.9491    9.1049 C.ar    1  UNL1        0.0261
     27 C           4.8786   42.2162   10.1273 C.ar    1  UNL1        0.0548
     28 C           2.6319   42.0567   11.2117 C.3     1  UNL1        0.1533
     29 C           5.5631   41.1860   10.9620 C.3     1  UNL1        0.0515
     30 N           3.5880   42.5803   10.2510 N.ar    1  UNL1       -0.2534
     31 N           3.2898   43.5036    9.3508 N.ar    1  UNL1       -0.1742
@<TRIPOS>BOND
     1    24    25    1
     2    25    26   ar
     3    27    30   ar
     4    28    30    1
     5    29    27    1
     6    23    26    1
     7    23    21    1
     8    19    21    1
     9    18    20    1
    10    18     4    1
    11     2     3   ar
    12     2     7    1
    13    10     6    1
    14    10    11    1
    15    12    13   ar
    16    14    15   ar
    17    16    17    1
    18    16    11   ar
    19    30    31   ar
    20    21    20   am
    21     4     1   ar
    22     4     5   ar
    23     7     6   am
    24    25    31   ar
    25    26    27   ar
    26    20    22    2
    27     1     2   ar
    28     3     5   ar
    29     6     8    2
    30    11    12   ar
    31    13    14   ar
    32    15    16   ar
    33     7     9    1
@<TRIPOS>MOLECULE
MolPort-020-269-161 19749405 MCULE-9600677370 PubChem-92634656 ZINC000019749405 ZINC19749405
 31 33 0 0 0
SMALL
GASTEIGER

@<TRIPOS>ATOM
      1 C          10.5393   40.3935    9.7466 C.ar    1  UNL1        0.1119
      2 C          11.7788   39.8823    9.4203 C.ar    1  UNL1        0.0905
      3 C          12.3844   40.7652    8.5504 C.ar    1  UNL1        0.1363
      4 N          10.4389   41.5556    9.0783 N.ar    1  UNL1       -0.2387
      5 N          11.5256   41.7852    8.3582 N.ar    1  UNL1       -0.1658
      6 C          13.2411   38.5275   10.9987 C.2     1  UNL1        0.2307
      7 N          12.3584   38.6565    9.8792 N.am    1  UNL1       -0.2812
      8 O          13.5733   39.5307   11.6841 O.2     1  UNL1       -0.2744
      9 H          12.1317   37.8358    9.3849 H       1  UNL1        0.1550
     10 C          13.7964   37.1872   11.3405 C.3     1  UNL1        0.1139
     11 C          14.7846   36.7502   10.3095 C.ar    1  UNL1        0.0144
     12 C          14.3823   35.8730    9.2948 C.ar    1  UNL1       -0.0016
     13 C          15.2926   35.4676    8.3146 C.ar    1  UNL1       -0.0002
     14 C          16.6079   35.9408    8.3442 C.ar    1  UNL1        0.0023
     15 C          17.0129   36.8203    9.3522 C.ar    1  UNL1        0.0293
     16 C          16.1047   37.2284   10.3343 C.ar    1  UNL1        0.1366
     17 F          16.5120   38.0850   11.3044 F       1  UNL1       -0.2045
     18 C           9.2769   42.4302    9.0919 C.3     1  UNL1        0.2121
     19 C           6.7640   43.1362    6.2158 C.3     1  UNL1        0.1152
     20 C           8.5840   42.3922    7.7665 C.2     1  UNL1        0.2508
     21 N           7.4228   43.1997    7.5110 N.am    1  UNL1       -0.2720
     22 O           9.0336   41.6306    6.8678 O.2     1  UNL1       -0.2727
     23 C           6.8126   44.0249    8.5476 C.3     1  UNL1        0.1226
     24 C           3.9937   45.2037    7.5727 C.3     1  UNL1        0.0537
     25 C           4.2156   44.0359    8.4683 C.ar    1  UNL1        0.0777
     26 C           5.4378   43.5380    8.8901 C.ar    1  UNL1        0.0261
     27 C           5.1139   42.4427    9.6627 C.ar    1  UNL1        0.0548
     28 C           3.0126   41.3085   10.4025 C.3     1  UNL1        0.1533
     29 C           6.0723   41.5272   10.3481 C.3     1  UNL1        0.0515
     30 N           3.7727   42.3256    9.6960 N.ar    1  UNL1       -0.2534
     31 N           3.2164   43.2846    8.9734 N.ar    1  UNL1       -0.1742
@<TRIPOS>BOND
     1    24    25    1
     2    25    26   ar
     3    27    30   ar
     4    28    30    1
     5    29    27    1
     6    23    26    1
     7    23    21    1
     8    19    21    1
     9    18    20    1
    10    18     4    1
    11     2     3   ar
    12     2     7    1
    13    10     6    1
    14    10    11    1
    15    12    13   ar
    16    14    15   ar
    17    16    17    1
    18    16    11   ar
    19    30    31   ar
    20    21    20   am
    21     4     1   ar
    22     4     5   ar
    23     7     6   am
    24    25    31   ar
    25    26    27   ar
    26    20    22    2
    27     1     2   ar
    28     3     5   ar
    29     6     8    2
    30    11    12   ar
    31    13    14   ar
    32    15    16   ar
    33     7     9    1
