@<TRIPOS>MOLECULE
MolPort-004-986-189 CSSS00159779203 MCULE-3938171623 PubChem-45162554
 36 39 0 0 0
SMALL
GASTEIGER

@<TRIPOS>ATOM
      1 C          13.2438   38.8137    9.9679 C.ar    1  UNL1        0.1514
      2 C          14.4789   39.2796    9.5093 C.ar    1  UNL1        0.0760
      3 C          14.2236   40.4634    8.8393 C.ar    1  UNL1        0.0505
      4 C          15.0331   41.3190    8.0978 C.ar    1  UNL1        0.0202
      5 C          14.4226   42.4270    7.4861 C.ar    1  UNL1        0.0642
      6 C          13.0269   42.6213    7.6289 C.ar    1  UNL1        0.1147
      7 C          12.8762   40.6802    8.9394 C.ar    1  UNL1        0.1453
      8 N          12.2695   41.7403    8.3474 N.ar    1  UNL1       -0.2254
      9 N          12.2658   39.6956    9.6243 N.ar    1  UNL1       -0.3040
     10 C          15.9954   37.2671    9.0927 C.2     1  UNL1        0.2495
     11 O          15.2245   36.7464    8.2417 O.2     1  UNL1       -0.2698
     12 N          15.7244   38.5759    9.6089 N.am    1  UNL1       -0.2790
     13 H          16.4609   39.0341   10.0746 H       1  UNL1        0.1552
     14 C          17.2111   36.5509    9.5159 C.ar    1  UNL1        0.0537
     15 C          17.5747   35.3458    8.8970 C.ar    1  UNL1        0.0045
     16 C          18.7288   34.6656    9.2969 C.ar    1  UNL1        0.0001
     17 C          19.5280   35.1859   10.3184 C.ar    1  UNL1        0.0000
     18 C          19.1734   36.3861   10.9402 C.ar    1  UNL1        0.0001
     19 C          18.0194   37.0665   10.5403 C.ar    1  UNL1        0.0045
     20 C          13.0288   37.5527   10.7105 C.2     1  UNL1        0.3587
     21 O          13.5799   37.3740   11.8307 O.2     1  UNL1       -0.2432
     22 C          12.5457   35.1789   10.2680 C.3     1  UNL1        0.2560
     23 O          12.2177   36.5561   10.1641 O.3     1  UNL1       -0.4403
     24 N          15.2259   43.3385    6.7320 N.pl3   1  UNL1       -0.3314
     25 H          15.0772   43.3990    5.7607 H       1  UNL1        0.1469
     26 C          16.2553   44.1839    7.3294 C.3     1  UNL1        0.0869
     27 C          17.6607   43.6487    7.0559 C.3     1  UNL1        0.0180
     28 C          17.8355   42.2746    7.6759 C.3     1  UNL1        0.0017
     29 C          17.9335   43.5692    5.5652 C.3     1  UNL1        0.0017
     30 C          18.6658   44.5926    7.6805 C.3     1  UNL1        0.0017
     31 C          10.8294   39.5740    9.8496 C.3     1  UNL1        0.1371
     32 C          10.2334   40.9225   10.2229 C.3     1  UNL1        0.1378
     33 C           9.9582   40.9635   11.7065 C.3     1  UNL1        0.0341
     34 C           8.6455   41.6792   11.8094 C.3     1  UNL1        0.0346
     35 C           8.2764   41.9733   10.3744 C.3     1  UNL1        0.1422
     36 O           9.0239   41.1278    9.5425 O.3     1  UNL1       -0.3543
@<TRIPOS>BOND
     1    22    23    1
     2    20    23    1
     3    20     1    1
     4     2    12    1
     5     2     3   ar
     6    10    14    1
     7    15    16   ar
     8    17    18   ar
     9    19    14   ar
    10     4     5   ar
    11     5    24    1
    12    26    24    1
    13    26    27    1
    14    27    28    1
    15    27    29    1
    16    27    30    1
    17     6     8   ar
    18     7     9   ar
    19     7     3   ar
    20    31     9    1
    21    32    31    1
    22    32    33    1
    23    32    36    1
    24    33    34    1
    25    34    35    1
    26    35    36    1
    27    12    10   am
    28     9     1   ar
    29    20    21    2
    30     1     2   ar
    31    10    11    2
    32    14    15   ar
    33    16    17   ar
    34    18    19   ar
    35     3     4   ar
    36     5     6   ar
    37     7     8   ar
    38    12    13    1
    39    24    25    1
@<TRIPOS>MOLECULE
MolPort-004-986-189 CSSS00159779203 MCULE-3938171623 PubChem-45162554
 36 39 0 0 0
SMALL
GASTEIGER

@<TRIPOS>ATOM
      1 C          14.7801   38.0524    9.9627 C.ar    1  UNL1        0.1514
      2 C          14.1823   39.2558    9.5789 C.ar    1  UNL1        0.0760
      3 C          12.8413   38.9777    9.3800 C.ar    1  UNL1        0.0505
      4 C          11.7815   39.7441    8.9040 C.ar    1  UNL1        0.0202
      5 C          10.5324   39.1153    8.7664 C.ar    1  UNL1        0.0642
      6 C          10.4021   37.7437    9.0949 C.ar    1  UNL1        0.1147
      7 C          12.6751   37.6512    9.6718 C.ar    1  UNL1        0.1453
      8 N          11.4778   37.0265    9.5359 N.ar    1  UNL1       -0.2254
      9 N          13.8362   37.0744   10.0325 N.ar    1  UNL1       -0.3040
     10 C          14.7607   41.2779    8.1297 C.2     1  UNL1        0.2495
     11 O          13.8010   41.0964    7.3324 O.2     1  UNL1       -0.2698
     12 N          14.8746   40.4840    9.3170 N.am    1  UNL1       -0.2790
     13 H          15.4840   40.8119   10.0173 H       1  UNL1        0.1552
     14 C          15.7378   42.3491    7.8693 C.ar    1  UNL1        0.0537
     15 C          16.9657   42.3677    8.5471 C.ar    1  UNL1        0.0045
     16 C          17.8944   43.3831    8.3001 C.ar    1  UNL1        0.0001
     17 C          17.6020   44.3871    7.3731 C.ar    1  UNL1        0.0000
     18 C          16.3813   44.3761    6.6931 C.ar    1  UNL1        0.0001
     19 C          15.4525   43.3607    6.9399 C.ar    1  UNL1        0.0045
     20 C          16.2198   37.8662   10.2465 C.2     1  UNL1        0.3587
     21 O          16.5892   37.1016   11.1790 O.2     1  UNL1       -0.2432
     22 C          18.3606   39.0677   10.0530 C.3     1  UNL1        0.2560
     23 O          17.1706   38.5453    9.4820 O.3     1  UNL1       -0.4403
     24 N           9.4158   39.8760    8.2982 N.pl3   1  UNL1       -0.3314
     25 H           8.6080   39.3920    8.0111 H       1  UNL1        0.1469
     26 C           9.4127   41.3341    8.2243 C.3     1  UNL1        0.0869
     27 C           8.3855   41.9499    9.1739 C.3     1  UNL1        0.0180
     28 C           8.7965   41.7268   10.6177 C.3     1  UNL1        0.0017
     29 C           8.2281   43.4372    8.9170 C.3     1  UNL1        0.0017
     30 C           7.0500   41.2763    8.9416 C.3     1  UNL1        0.0017
     31 C          14.0312   35.6602   10.3341 C.3     1  UNL1        0.1371
     32 C          14.4300   34.8987    9.0795 C.3     1  UNL1        0.1378
     33 C          13.7269   33.5633    9.0504 C.3     1  UNL1        0.0341
     34 C          14.7686   32.6193    8.5309 C.3     1  UNL1        0.0346
     35 C          15.9822   33.4942    8.3212 C.3     1  UNL1        0.1422
     36 O          15.8141   34.6706    9.0651 O.3     1  UNL1       -0.3543
@<TRIPOS>BOND
     1    22    23    1
     2    20    23    1
     3    20     1    1
     4     2    12    1
     5     2     3   ar
     6    10    14    1
     7    15    16   ar
     8    17    18   ar
     9    19    14   ar
    10     4     5   ar
    11     5    24    1
    12    26    24    1
    13    26    27    1
    14    27    28    1
    15    27    29    1
    16    27    30    1
    17     6     8   ar
    18     7     9   ar
    19     7     3   ar
    20    31     9    1
    21    32    31    1
    22    32    33    1
    23    32    36    1
    24    33    34    1
    25    34    35    1
    26    35    36    1
    27    12    10   am
    28     9     1   ar
    29    20    21    2
    30     1     2   ar
    31    10    11    2
    32    14    15   ar
    33    16    17   ar
    34    18    19   ar
    35     3     4   ar
    36     5     6   ar
    37     7     8   ar
    38    12    13    1
    39    24    25    1
@<TRIPOS>MOLECULE
MolPort-004-986-189 CSSS00159779203 MCULE-3938171623 PubChem-45162554
 36 39 0 0 0
SMALL
GASTEIGER

@<TRIPOS>ATOM
      1 C          13.7272   39.0686   10.2901 C.ar    1  UNL1        0.1514
      2 C          13.4417   40.0726    9.3610 C.ar    1  UNL1        0.0760
      3 C          12.2436   39.7208    8.7642 C.ar    1  UNL1        0.0505
      4 C          11.5178   40.2730    7.7129 C.ar    1  UNL1        0.0202
      5 C          10.3451   39.6109    7.3116 C.ar    1  UNL1        0.0642
      6 C           9.9592   38.4166    7.9681 C.ar    1  UNL1        0.1147
      7 C          11.8426   38.5567    9.3612 C.ar    1  UNL1        0.1453
      8 N          10.7178   37.8999    8.9798 N.ar    1  UNL1       -0.2254
      9 N          12.7244   38.1485   10.2923 N.ar    1  UNL1       -0.3040
     10 C          14.4950   41.7109    7.7087 C.2     1  UNL1        0.2495
     11 O          13.6727   41.4537    6.7882 O.2     1  UNL1       -0.2698
     12 N          14.3082   41.1629    9.0193 N.am    1  UNL1       -0.2790
     13 H          14.8219   41.5725    9.7526 H       1  UNL1        0.1552
     14 C          15.6214   42.6248    7.4515 C.ar    1  UNL1        0.0537
     15 C          15.5484   43.5635    6.4117 C.ar    1  UNL1        0.0045
     16 C          16.6161   44.4322    6.1672 C.ar    1  UNL1        0.0001
     17 C          17.7645   44.3688    6.9610 C.ar    1  UNL1        0.0000
     18 C          17.8455   43.4369    7.9992 C.ar    1  UNL1        0.0001
     19 C          16.7778   42.5682    8.2439 C.ar    1  UNL1        0.0045
     20 C          14.9363   39.0102   11.1402 C.2     1  UNL1        0.3587
     21 O          14.8454   38.6669   12.3503 O.2     1  UNL1       -0.2432
     22 C          17.3916   38.8222   11.1259 C.3     1  UNL1        0.2560
     23 O          16.1802   39.3429   10.6001 O.3     1  UNL1       -0.4403
     24 N           9.5632   40.1592    6.2474 N.pl3   1  UNL1       -0.3314
     25 H           9.3446   39.5802    5.4818 H       1  UNL1        0.1469
     26 C           9.0725   41.5342    6.2385 C.3     1  UNL1        0.0869
     27 C           7.6585   41.6375    6.8096 C.3     1  UNL1        0.0180
     28 C           6.9643   42.8817    6.2868 C.3     1  UNL1        0.0017
     29 C           6.8360   40.4126    6.4544 C.3     1  UNL1        0.0017
     30 C           7.7535   41.7340    8.3172 C.3     1  UNL1        0.0017
     31 C          12.6446   36.9112   11.0614 C.3     1  UNL1        0.1371
     32 C          13.6872   35.9155   10.5770 C.3     1  UNL1        0.1378
     33 C          14.4579   36.5078    9.4222 C.3     1  UNL1        0.0341
     34 C          14.6333   35.3570    8.4784 C.3     1  UNL1        0.0346
     35 C          13.9352   34.2089    9.1688 C.3     1  UNL1        0.1422
     36 O          13.0692   34.7352   10.1376 O.3     1  UNL1       -0.3543
@<TRIPOS>BOND
     1    22    23    1
     2    20    23    1
     3    20     1    1
     4     2    12    1
     5     2     3   ar
     6    10    14    1
     7    15    16   ar
     8    17    18   ar
     9    19    14   ar
    10     4     5   ar
    11     5    24    1
    12    26    24    1
    13    26    27    1
    14    27    28    1
    15    27    29    1
    16    27    30    1
    17     6     8   ar
    18     7     9   ar
    19     7     3   ar
    20    31     9    1
    21    32    31    1
    22    32    33    1
    23    32    36    1
    24    33    34    1
    25    34    35    1
    26    35    36    1
    27    12    10   am
    28     9     1   ar
    29    20    21    2
    30     1     2   ar
    31    10    11    2
    32    14    15   ar
    33    16    17   ar
    34    18    19   ar
    35     3     4   ar
    36     5     6   ar
    37     7     8   ar
    38    12    13    1
    39    24    25    1
@<TRIPOS>MOLECULE
MolPort-004-986-189 CSSS00159779203 MCULE-3938171623 PubChem-45162554
 36 39 0 0 0
SMALL
GASTEIGER

@<TRIPOS>ATOM
      1 C          11.5236   40.7125    8.3065 C.ar    1  UNL1        0.1514
      2 C          12.8058   40.1864    8.1273 C.ar    1  UNL1        0.0760
      3 C          12.7738   38.9010    8.6393 C.ar    1  UNL1        0.0505
      4 C          13.7604   37.9374    8.8263 C.ar    1  UNL1        0.0202
      5 C          13.3863   36.7331    9.4462 C.ar    1  UNL1        0.0642
      6 C          12.0459   36.5522    9.8668 C.ar    1  UNL1        0.1147
      7 C          11.4935   38.6911    9.0743 C.ar    1  UNL1        0.1453
      8 N          11.1178   37.5375    9.6828 N.ar    1  UNL1       -0.2254
      9 N          10.7194   39.7739    8.8762 N.ar    1  UNL1       -0.3040
     10 C          15.0638   41.3453    8.4135 C.2     1  UNL1        0.2495
     11 O          15.2711   40.8600    9.5586 O.2     1  UNL1       -0.2698
     12 N          13.9423   40.9097    7.6356 N.am    1  UNL1       -0.2790
     13 H          13.9528   41.1268    6.6754 H       1  UNL1        0.1552
     14 C          16.0106   42.3225    7.8489 C.ar    1  UNL1        0.0537
     15 C          17.2686   42.5124    8.4396 C.ar    1  UNL1        0.0045
     16 C          18.1686   43.4386    7.9041 C.ar    1  UNL1        0.0001
     17 C          17.8171   44.1815    6.7739 C.ar    1  UNL1        0.0000
     18 C          16.5660   43.9985    6.1789 C.ar    1  UNL1        0.0001
     19 C          15.6659   43.0722    6.7142 C.ar    1  UNL1        0.0045
     20 C          11.1030   42.0817    7.9377 C.2     1  UNL1        0.3587
     21 O          11.6016   43.0792    8.5266 O.2     1  UNL1       -0.2432
     22 C          10.1296   41.4796    5.7573 C.3     1  UNL1        0.2560
     23 O          10.1459   42.2673    6.9381 O.3     1  UNL1       -0.4403
     24 N          14.3689   35.7121    9.6380 N.pl3   1  UNL1       -0.3314
     25 H          14.6962   35.5442   10.5511 H       1  UNL1        0.1469
     26 C          14.9114   34.9059    8.5484 C.3     1  UNL1        0.0869
     27 C          16.4047   35.1584    8.3426 C.3     1  UNL1        0.0180
     28 C          16.8817   36.2843    9.2415 C.3     1  UNL1        0.0017
     29 C          17.2139   33.9066    8.6275 C.3     1  UNL1        0.0017
     30 C          16.6312   35.5613    6.9011 C.3     1  UNL1        0.0017
     31 C           9.3282   39.9181    9.2915 C.3     1  UNL1        0.1371
     32 C           9.1702   41.1157   10.2156 C.3     1  UNL1        0.1378
     33 C           9.9073   40.8612   11.5080 C.3     1  UNL1        0.0341
     34 C           8.9970   41.4222   12.5581 C.3     1  UNL1        0.0346
     35 C           7.8111   41.9366   11.7763 C.3     1  UNL1        0.1422
     36 O           7.8159   41.3287   10.5130 O.3     1  UNL1       -0.3543
@<TRIPOS>BOND
     1    22    23    1
     2    20    23    1
     3    20     1    1
     4     2    12    1
     5     2     3   ar
     6    10    14    1
     7    15    16   ar
     8    17    18   ar
     9    19    14   ar
    10     4     5   ar
    11     5    24    1
    12    26    24    1
    13    26    27    1
    14    27    28    1
    15    27    29    1
    16    27    30    1
    17     6     8   ar
    18     7     9   ar
    19     7     3   ar
    20    31     9    1
    21    32    31    1
    22    32    33    1
    23    32    36    1
    24    33    34    1
    25    34    35    1
    26    35    36    1
    27    12    10   am
    28     9     1   ar
    29    20    21    2
    30     1     2   ar
    31    10    11    2
    32    14    15   ar
    33    16    17   ar
    34    18    19   ar
    35     3     4   ar
    36     5     6   ar
    37     7     8   ar
    38    12    13    1
    39    24    25    1
@<TRIPOS>MOLECULE
MolPort-004-986-189 CSSS00159779203 MCULE-3938171623 PubChem-45162554
 36 39 0 0 0
SMALL
GASTEIGER

@<TRIPOS>ATOM
      1 C          10.7068   41.4810    6.6767 C.ar    1  UNL1        0.1514
      2 C          11.2859   41.9419    7.8621 C.ar    1  UNL1        0.0760
      3 C          10.2385   42.2453    8.7143 C.ar    1  UNL1        0.0505
      4 C          10.1911   42.8262    9.9781 C.ar    1  UNL1        0.0202
      5 C           8.9253   43.0525   10.5446 C.ar    1  UNL1        0.0642
      6 C           7.7623   42.7035    9.8153 C.ar    1  UNL1        0.1147
      7 C           9.0895   41.9369    8.0380 C.ar    1  UNL1        0.1453
      8 N           7.8591   42.1573    8.5670 N.ar    1  UNL1       -0.2254
      9 N           9.3520   41.4669    6.8046 N.ar    1  UNL1       -0.3040
     10 C          13.5212   43.0369    7.2893 C.2     1  UNL1        0.2495
     11 O          13.0083   43.8954    6.5214 O.2     1  UNL1       -0.2698
     12 N          12.6855   42.1743    8.0706 N.am    1  UNL1       -0.2790
     13 H          13.1113   41.6974    8.8193 H       1  UNL1        0.1552
     14 C          14.9857   42.9585    7.4274 C.ar    1  UNL1        0.0537
     15 C          15.8103   43.8727    6.7552 C.ar    1  UNL1        0.0045
     16 C          17.2003   43.8003    6.8862 C.ar    1  UNL1        0.0001
     17 C          17.7758   42.8131    7.6907 C.ar    1  UNL1        0.0000
     18 C          16.9618   41.8984    8.3642 C.ar    1  UNL1        0.0001
     19 C          15.5717   41.9709    8.2334 C.ar    1  UNL1        0.0045
     20 C          11.4506   41.0737    5.4648 C.2     1  UNL1        0.3587
     21 O          12.6998   40.9070    5.5128 O.2     1  UNL1       -0.2432
     22 C          10.9493   39.7152    3.4730 C.3     1  UNL1        0.2560
     23 O          10.7658   40.8799    4.2635 O.3     1  UNL1       -0.4403
     24 N           8.8378   43.6302   11.8497 N.pl3   1  UNL1       -0.3314
     25 H           9.1466   44.5570   11.9722 H       1  UNL1        0.1469
     26 C           8.3138   42.9156   13.0099 C.3     1  UNL1        0.0869
     27 C           8.8553   41.4886   13.0915 C.3     1  UNL1        0.0180
     28 C           7.8906   40.5163   12.4379 C.3     1  UNL1        0.0017
     29 C          10.2128   41.3812   12.4217 C.3     1  UNL1        0.0017
     30 C           9.0062   41.1132   14.5502 C.3     1  UNL1        0.0017
     31 C           8.3597   41.1165    5.7940 C.3     1  UNL1        0.1371
     32 C           7.9799   39.6482    5.9079 C.3     1  UNL1        0.1378
     33 C           8.2277   39.1669    7.3169 C.3     1  UNL1        0.0341
     34 C           8.7914   37.7905    7.1333 C.3     1  UNL1        0.0346
     35 C           8.8305   37.6089    5.6341 C.3     1  UNL1        0.1422
     36 O           8.7554   38.8731    5.0326 O.3     1  UNL1       -0.3543
@<TRIPOS>BOND
     1    22    23    1
     2    20    23    1
     3    20     1    1
     4     2    12    1
     5     2     3   ar
     6    10    14    1
     7    15    16   ar
     8    17    18   ar
     9    19    14   ar
    10     4     5   ar
    11     5    24    1
    12    26    24    1
    13    26    27    1
    14    27    28    1
    15    27    29    1
    16    27    30    1
    17     6     8   ar
    18     7     9   ar
    19     7     3   ar
    20    31     9    1
    21    32    31    1
    22    32    33    1
    23    32    36    1
    24    33    34    1
    25    34    35    1
    26    35    36    1
    27    12    10   am
    28     9     1   ar
    29    20    21    2
    30     1     2   ar
    31    10    11    2
    32    14    15   ar
    33    16    17   ar
    34    18    19   ar
    35     3     4   ar
    36     5     6   ar
    37     7     8   ar
    38    12    13    1
    39    24    25    1
@<TRIPOS>MOLECULE
MolPort-004-986-189 CSSS00159779203 MCULE-3938171623 PubChem-45162554
 36 39 0 0 0
SMALL
GASTEIGER

@<TRIPOS>ATOM
      1 C          11.9342   38.9972    8.7900 C.ar    1  UNL1        0.1514
      2 C          13.2998   39.2785    8.6963 C.ar    1  UNL1        0.0760
      3 C          13.3998   40.5330    8.1204 C.ar    1  UNL1        0.0505
      4 C          14.4877   41.2895    7.6949 C.ar    1  UNL1        0.0202
      5 C          14.2224   42.5255    7.0813 C.ar    1  UNL1        0.0642
      6 C          12.8803   42.9427    6.9050 C.ar    1  UNL1        0.1147
      7 C          12.1181   40.9671    7.9170 C.ar    1  UNL1        0.1453
      8 N          11.8443   42.1539    7.3180 N.ar    1  UNL1       -0.2254
      9 N          11.2160   40.0541    8.3215 N.ar    1  UNL1       -0.3040
     10 C          15.3693   38.5666   10.0131 C.2     1  UNL1        0.2495
     11 O          15.2187   39.4470   10.9030 O.2     1  UNL1       -0.2698
     12 N          14.3619   38.3688    9.0137 N.am    1  UNL1       -0.2790
     13 H          14.4026   37.5315    8.4974 H       1  UNL1        0.1552
     14 C          16.5594   37.6986   10.0343 C.ar    1  UNL1        0.0537
     15 C          17.6173   37.9688   10.9148 C.ar    1  UNL1        0.0045
     16 C          18.7467   37.1452   10.9368 C.ar    1  UNL1        0.0001
     17 C          18.8263   36.0452   10.0786 C.ar    1  UNL1        0.0000
     18 C          17.7768   35.7685    9.1984 C.ar    1  UNL1        0.0001
     19 C          16.6472   36.5919    9.1764 C.ar    1  UNL1        0.0045
     20 C          11.3548   37.7413    9.3144 C.2     1  UNL1        0.3587
     21 O          10.1393   37.6934    9.6470 O.2     1  UNL1       -0.2432
     22 C          12.2390   35.8794   10.6618 C.3     1  UNL1        0.2560
     23 O          12.1603   36.6084    9.4463 O.3     1  UNL1       -0.4403
     24 N          15.3158   43.3389    6.6484 N.pl3   1  UNL1       -0.3314
     25 H          15.4385   43.4811    5.6820 H       1  UNL1        0.1469
     26 C          16.2595   43.9693    7.5668 C.3     1  UNL1        0.0869
     27 C          17.6869   43.4678    7.3489 C.3     1  UNL1        0.0180
     28 C          18.6861   44.4182    7.9825 C.3     1  UNL1        0.0017
     29 C          17.8716   42.0784    7.9305 C.3     1  UNL1        0.0017
     30 C          17.9542   43.4070    5.8602 C.3     1  UNL1        0.0017
     31 C           9.7678   40.1618    8.1800 C.3     1  UNL1        0.1371
     32 C           9.2770   41.4921    8.7298 C.3     1  UNL1        0.1378
     33 C           8.3601   41.2495    9.9041 C.3     1  UNL1        0.0341
     34 C           7.2713   42.2639    9.7261 C.3     1  UNL1        0.0346
     35 C           7.6524   42.9898    8.4573 C.3     1  UNL1        0.1422
     36 O           8.5622   42.1935    7.7475 O.3     1  UNL1       -0.3543
@<TRIPOS>BOND
     1    22    23    1
     2    20    23    1
     3    20     1    1
     4     2    12    1
     5     2     3   ar
     6    10    14    1
     7    15    16   ar
     8    17    18   ar
     9    19    14   ar
    10     4     5   ar
    11     5    24    1
    12    26    24    1
    13    26    27    1
    14    27    28    1
    15    27    29    1
    16    27    30    1
    17     6     8   ar
    18     7     9   ar
    19     7     3   ar
    20    31     9    1
    21    32    31    1
    22    32    33    1
    23    32    36    1
    24    33    34    1
    25    34    35    1
    26    35    36    1
    27    12    10   am
    28     9     1   ar
    29    20    21    2
    30     1     2   ar
    31    10    11    2
    32    14    15   ar
    33    16    17   ar
    34    18    19   ar
    35     3     4   ar
    36     5     6   ar
    37     7     8   ar
    38    12    13    1
    39    24    25    1
@<TRIPOS>MOLECULE
MolPort-004-986-189 CSSS00159779203 MCULE-3938171623 PubChem-45162554
 36 39 0 0 0
SMALL
GASTEIGER

@<TRIPOS>ATOM
      1 C          10.5309   41.1438   10.9289 C.ar    1  UNL1        0.1514
      2 C          10.2099   41.8836    9.7876 C.ar    1  UNL1        0.0760
      3 C          11.3439   41.8863    8.9942 C.ar    1  UNL1        0.0505
      4 C          11.6561   42.5304    7.8006 C.ar    1  UNL1        0.0202
      5 C          12.9530   42.3595    7.2874 C.ar    1  UNL1        0.0642
      6 C          13.8857   41.5659    7.9992 C.ar    1  UNL1        0.1147
      7 C          12.2801   41.1405    9.6572 C.ar    1  UNL1        0.1453
      8 N          13.5397   40.9728    9.1801 N.ar    1  UNL1       -0.2254
      9 N          11.8053   40.6769   10.8280 N.ar    1  UNL1       -0.3040
     10 C           7.8092   42.0888    8.9402 C.2     1  UNL1        0.2495
     11 O           7.6642   40.8473    8.7749 O.2     1  UNL1       -0.2698
     12 N           8.9864   42.6011    9.5763 N.am    1  UNL1       -0.2790
     13 H           8.9522   43.5310    9.8977 H       1  UNL1        0.1552
     14 C           6.7382   43.0132    8.5296 C.ar    1  UNL1        0.0537
     15 C           5.4670   42.9297    9.1167 C.ar    1  UNL1        0.0045
     16 C           4.4500   43.8070    8.7289 C.ar    1  UNL1        0.0001
     17 C           4.6970   44.7745    7.7512 C.ar    1  UNL1        0.0000
     18 C           5.9606   44.8650    7.1613 C.ar    1  UNL1        0.0001
     19 C           6.9777   43.9878    7.5492 C.ar    1  UNL1        0.0045
     20 C           9.6267   40.9062   12.0750 C.2     1  UNL1        0.3587
     21 O           8.4323   40.5525   11.8785 O.2     1  UNL1       -0.2432
     22 C           9.2278   41.0742   14.4993 C.3     1  UNL1        0.2560
     23 O          10.0980   41.0810   13.3777 O.3     1  UNL1       -0.4403
     24 N          13.3042   42.9905    6.0532 N.pl3   1  UNL1       -0.3314
     25 H          12.6090   43.4948    5.5719 H       1  UNL1        0.1469
     26 C          14.6412   42.9248    5.4706 C.3     1  UNL1        0.0869
     27 C          15.5586   44.0132    6.0274 C.3     1  UNL1        0.0180
     28 C          15.7953   43.8003    7.5113 C.3     1  UNL1        0.0017
     29 C          16.8904   44.0286    5.3001 C.3     1  UNL1        0.0017
     30 C          14.8871   45.3557    5.8325 C.3     1  UNL1        0.0017
     31 C          12.5616   39.9146   11.8158 C.3     1  UNL1        0.1371
     32 C          13.5224   38.9575   11.1274 C.3     1  UNL1        0.1378
     33 C          12.7859   37.7053   10.7176 C.3     1  UNL1        0.0341
     34 C          13.7579   36.6033   11.0120 C.3     1  UNL1        0.0346
     35 C          14.9614   37.3195   11.5782 C.3     1  UNL1        0.1422
     36 O          14.5602   38.5953   11.9990 O.3     1  UNL1       -0.3543
@<TRIPOS>BOND
     1    22    23    1
     2    20    23    1
     3    20     1    1
     4     2    12    1
     5     2     3   ar
     6    10    14    1
     7    15    16   ar
     8    17    18   ar
     9    19    14   ar
    10     4     5   ar
    11     5    24    1
    12    26    24    1
    13    26    27    1
    14    27    28    1
    15    27    29    1
    16    27    30    1
    17     6     8   ar
    18     7     9   ar
    19     7     3   ar
    20    31     9    1
    21    32    31    1
    22    32    33    1
    23    32    36    1
    24    33    34    1
    25    34    35    1
    26    35    36    1
    27    12    10   am
    28     9     1   ar
    29    20    21    2
    30     1     2   ar
    31    10    11    2
    32    14    15   ar
    33    16    17   ar
    34    18    19   ar
    35     3     4   ar
    36     5     6   ar
    37     7     8   ar
    38    12    13    1
    39    24    25    1
@<TRIPOS>MOLECULE
MolPort-004-986-189 CSSS00159779203 MCULE-3938171623 PubChem-45162554
 36 39 0 0 0
SMALL
GASTEIGER

@<TRIPOS>ATOM
      1 C          10.5062   40.1528    6.4258 C.ar    1  UNL1        0.1514
      2 C          11.7985   40.0529    6.9480 C.ar    1  UNL1        0.0760
      3 C          11.7439   39.0886    7.9393 C.ar    1  UNL1        0.0505
      4 C          12.6812   38.6323    8.8614 C.ar    1  UNL1        0.0202
      5 C          12.2644   37.6632    9.7896 C.ar    1  UNL1        0.0642
      6 C          10.9241   37.2056    9.7656 C.ar    1  UNL1        0.1147
      7 C          10.4548   38.6302    7.9607 C.ar    1  UNL1        0.1453
      8 N          10.0336   37.7013    8.8561 N.ar    1  UNL1       -0.2254
      9 N           9.6909   39.2578    7.0475 N.ar    1  UNL1       -0.3040
     10 C          13.6226   41.7553    7.4940 C.2     1  UNL1        0.2495
     11 O          13.5115   41.6113    8.7417 O.2     1  UNL1       -0.2698
     12 N          12.9056   40.8954    6.6000 N.am    1  UNL1       -0.2790
     13 H          13.2000   40.8815    5.6607 H       1  UNL1        0.1552
     14 C          14.5376   42.7748    6.9522 C.ar    1  UNL1        0.0537
     15 C          14.0910   43.6823    5.9803 C.ar    1  UNL1        0.0045
     16 C          14.9580   44.6510    5.4660 C.ar    1  UNL1        0.0001
     17 C          16.2778   44.7194    5.9202 C.ar    1  UNL1        0.0000
     18 C          16.7309   43.8195    6.8885 C.ar    1  UNL1        0.0001
     19 C          15.8640   42.8508    7.4030 C.ar    1  UNL1        0.0045
     20 C          10.0850   41.0902    5.3621 C.2     1  UNL1        0.3587
     21 O           9.6004   42.2151    5.6628 O.2     1  UNL1       -0.2432
     22 C           9.8837   39.4236    3.5604 C.3     1  UNL1        0.2560
     23 O          10.2196   40.7235    4.0215 O.3     1  UNL1       -0.4403
     24 N          13.2050   37.1568   10.7401 N.pl3   1  UNL1       -0.3314
     25 H          12.8807   36.9242   11.6401 H       1  UNL1        0.1469
     26 C          14.6219   36.9671   10.4437 C.3     1  UNL1        0.0869
     27 C          15.4746   38.1156   10.9822 C.3     1  UNL1        0.0180
     28 C          16.7806   37.5877   11.5469 C.3     1  UNL1        0.0017
     29 C          15.7683   39.1331    9.8954 C.3     1  UNL1        0.0017
     30 C          14.7103   38.8035   12.0931 C.3     1  UNL1        0.0017
     31 C           8.2572   39.0672    6.8556 C.3     1  UNL1        0.1371
     32 C           7.5013   40.3438    7.1901 C.3     1  UNL1        0.1378
     33 C           7.9206   40.8406    8.5523 C.3     1  UNL1        0.0341
     34 C           6.6422   41.3209    9.1695 C.3     1  UNL1        0.0346
     35 C           5.5996   41.0441    8.1120 C.3     1  UNL1        0.1422
     36 O           6.1196   40.1023    7.2130 O.3     1  UNL1       -0.3543
@<TRIPOS>BOND
     1    22    23    1
     2    20    23    1
     3    20     1    1
     4     2    12    1
     5     2     3   ar
     6    10    14    1
     7    15    16   ar
     8    17    18   ar
     9    19    14   ar
    10     4     5   ar
    11     5    24    1
    12    26    24    1
    13    26    27    1
    14    27    28    1
    15    27    29    1
    16    27    30    1
    17     6     8   ar
    18     7     9   ar
    19     7     3   ar
    20    31     9    1
    21    32    31    1
    22    32    33    1
    23    32    36    1
    24    33    34    1
    25    34    35    1
    26    35    36    1
    27    12    10   am
    28     9     1   ar
    29    20    21    2
    30     1     2   ar
    31    10    11    2
    32    14    15   ar
    33    16    17   ar
    34    18    19   ar
    35     3     4   ar
    36     5     6   ar
    37     7     8   ar
    38    12    13    1
    39    24    25    1
@<TRIPOS>MOLECULE
MolPort-004-986-189 CSSS00159779203 MCULE-3938171623 PubChem-45162554
 36 39 0 0 0
SMALL
GASTEIGER

@<TRIPOS>ATOM
      1 C           6.3308   41.2299    9.1301 C.ar    1  UNL1        0.1514
      2 C           6.1003   41.0859   10.5008 C.ar    1  UNL1        0.0760
      3 C           4.7581   41.3584   10.7001 C.ar    1  UNL1        0.0505
      4 C           3.9801   41.4677   11.8490 C.ar    1  UNL1        0.0202
      5 C           2.6309   41.8270   11.6909 C.ar    1  UNL1        0.0642
      6 C           2.1234   42.0775   10.3925 C.ar    1  UNL1        0.1147
      7 C           4.2311   41.6237    9.4655 C.ar    1  UNL1        0.1453
      8 N           2.9325   41.9807    9.2963 N.ar    1  UNL1       -0.2254
      9 N           5.1660   41.5451    8.5007 N.ar    1  UNL1       -0.3040
     10 C           7.8881   41.8379   12.1627 C.2     1  UNL1        0.2495
     11 O           7.5374   43.0486   12.1326 O.2     1  UNL1       -0.2698
     12 N           7.1054   40.8414   11.4940 N.am    1  UNL1       -0.2790
     13 H           7.2730   39.9027   11.7388 H       1  UNL1        0.1552
     14 C           9.0760   41.4377   12.9365 C.ar    1  UNL1        0.0537
     15 C           8.9862   41.2455   14.3230 C.ar    1  UNL1        0.0045
     16 C          10.1125   40.8645   15.0585 C.ar    1  UNL1        0.0001
     17 C          11.3367   40.6726   14.4125 C.ar    1  UNL1        0.0000
     18 C          11.4351   40.8616   13.0314 C.ar    1  UNL1        0.0001
     19 C          10.3089   41.2424   12.2958 C.ar    1  UNL1        0.0045
     20 C           7.6410   41.0686    8.4628 C.2     1  UNL1        0.3587
     21 O           8.6349   41.7449    8.8439 O.2     1  UNL1       -0.2432
     22 C           9.0382   39.6714    6.9932 C.3     1  UNL1        0.2560
     23 O           7.7734   40.1683    7.4038 O.3     1  UNL1       -0.4403
     24 N           1.7960   41.9305   12.8472 N.pl3   1  UNL1       -0.3314
     25 H           1.8581   41.2267   13.5329 H       1  UNL1        0.1469
     26 C           0.8563   43.0267   13.0627 C.3     1  UNL1        0.0869
     27 C          -0.1115   42.7299   14.2079 C.3     1  UNL1        0.0180
     28 C           0.5919   42.8646   15.5459 C.3     1  UNL1        0.0017
     29 C          -1.3063   43.6646   14.1684 C.3     1  UNL1        0.0017
     30 C          -0.6073   41.3070   14.0632 C.3     1  UNL1        0.0017
     31 C           4.9631   41.8427    7.0869 C.3     1  UNL1        0.1371
     32 C           5.2451   43.3106    6.8063 C.3     1  UNL1        0.1378
     33 C           6.7308   43.5664    6.8830 C.3     1  UNL1        0.0341
     34 C           6.8323   44.8948    7.5693 C.3     1  UNL1        0.0346
     35 C           5.3959   45.2774    7.8386 C.3     1  UNL1        0.1422
     36 O           4.6067   44.1216    7.7564 O.3     1  UNL1       -0.3543
@<TRIPOS>BOND
     1    22    23    1
     2    20    23    1
     3    20     1    1
     4     2    12    1
     5     2     3   ar
     6    10    14    1
     7    15    16   ar
     8    17    18   ar
     9    19    14   ar
    10     4     5   ar
    11     5    24    1
    12    26    24    1
    13    26    27    1
    14    27    28    1
    15    27    29    1
    16    27    30    1
    17     6     8   ar
    18     7     9   ar
    19     7     3   ar
    20    31     9    1
    21    32    31    1
    22    32    33    1
    23    32    36    1
    24    33    34    1
    25    34    35    1
    26    35    36    1
    27    12    10   am
    28     9     1   ar
    29    20    21    2
    30     1     2   ar
    31    10    11    2
    32    14    15   ar
    33    16    17   ar
    34    18    19   ar
    35     3     4   ar
    36     5     6   ar
    37     7     8   ar
    38    12    13    1
    39    24    25    1
@<TRIPOS>MOLECULE
MolPort-004-986-189 CSSS00159779203 MCULE-3938171623 PubChem-45162554
 36 39 0 0 0
SMALL
GASTEIGER

@<TRIPOS>ATOM
      1 C          12.9505   38.5794    9.4457 C.ar    1  UNL1        0.1514
      2 C          14.2267   39.0397    9.1109 C.ar    1  UNL1        0.0760
      3 C          14.0564   40.3064    8.5800 C.ar    1  UNL1        0.0505
      4 C          14.9393   41.2070    7.9914 C.ar    1  UNL1        0.0202
      5 C          14.4084   42.4080    7.4910 C.ar    1  UNL1        0.0642
      6 C          13.0157   42.6479    7.5861 C.ar    1  UNL1        0.1147
      7 C          12.7152   40.5716    8.6380 C.ar    1  UNL1        0.1453
      8 N          12.1851   41.7225    8.1513 N.ar    1  UNL1       -0.2254
      9 N          12.0290   39.5407    9.1646 N.ar    1  UNL1       -0.3040
     10 C          15.6610   36.9950    8.5767 C.2     1  UNL1        0.2495
     11 O          14.8909   36.5775    7.6699 O.2     1  UNL1       -0.2698
     12 N          15.4358   38.2722    9.1856 N.am    1  UNL1       -0.2790
     13 H          16.1793   38.6584    9.7027 H       1  UNL1        0.1552
     14 C          16.8310   36.1919    8.9723 C.ar    1  UNL1        0.0537
     15 C          17.8197   36.7419    9.8014 C.ar    1  UNL1        0.0045
     16 C          18.9299   35.9805   10.1786 C.ar    1  UNL1        0.0001
     17 C          19.0593   34.6635    9.7295 C.ar    1  UNL1        0.0000
     18 C          18.0788   34.1076    8.9035 C.ar    1  UNL1        0.0001
     19 C          16.9684   34.8688    8.5264 C.ar    1  UNL1        0.0045
     20 C          12.6445   37.2492   10.0154 C.2     1  UNL1        0.3587
     21 O          11.5830   36.6495    9.6929 O.2     1  UNL1       -0.2432
     22 C          14.1125   37.3917   11.9874 C.3     1  UNL1        0.2560
     23 O          13.5327   36.6604   10.9177 O.3     1  UNL1       -0.4403
     24 N          15.2880   43.3658    6.8964 N.pl3   1  UNL1       -0.3314
     25 H          15.1765   43.5724    5.9403 H       1  UNL1        0.1469
     26 C          16.3431   44.0530    7.6352 C.3     1  UNL1        0.0869
     27 C          17.7347   43.6021    7.1919 C.3     1  UNL1        0.0180
     28 C          17.8236   43.5657    5.6773 C.3     1  UNL1        0.0017
     29 C          18.8074   44.5254    7.7394 C.3     1  UNL1        0.0017
     30 C          17.9815   42.2068    7.7246 C.3     1  UNL1        0.0017
     31 C          10.5786   39.4593    9.3006 C.3     1  UNL1        0.1371
     32 C           9.9122   39.5160    7.9347 C.3     1  UNL1        0.1378
     33 C           8.8434   40.5819    7.9343 C.3     1  UNL1        0.0341
     34 C           7.7247   39.9697    7.1472 C.3     1  UNL1        0.0346
     35 C           8.2450   38.6006    6.7773 C.3     1  UNL1        0.1422
     36 O           9.3100   38.2854    7.6328 O.3     1  UNL1       -0.3543
@<TRIPOS>BOND
     1    22    23    1
     2    20    23    1
     3    20     1    1
     4     2    12    1
     5     2     3   ar
     6    10    14    1
     7    15    16   ar
     8    17    18   ar
     9    19    14   ar
    10     4     5   ar
    11     5    24    1
    12    26    24    1
    13    26    27    1
    14    27    28    1
    15    27    29    1
    16    27    30    1
    17     6     8   ar
    18     7     9   ar
    19     7     3   ar
    20    31     9    1
    21    32    31    1
    22    32    33    1
    23    32    36    1
    24    33    34    1
    25    34    35    1
    26    35    36    1
    27    12    10   am
    28     9     1   ar
    29    20    21    2
    30     1     2   ar
    31    10    11    2
    32    14    15   ar
    33    16    17   ar
    34    18    19   ar
    35     3     4   ar
    36     5     6   ar
    37     7     8   ar
    38    12    13    1
    39    24    25    1
