@<TRIPOS>MOLECULE
MolPort-001-656-925 2804259 CHEMBL3487069 CSSS00133005194 MCULE-9047264522 PubChem-19582140 ZINC000002804259 ZINC02804259
 23 24 0 0 0
SMALL
GASTEIGER

@<TRIPOS>ATOM
      1 C          10.5031   42.1257    9.3104 C.2     1  UNL1        0.2258
      2 O          10.9719   43.2127    9.7410 O.2     1  UNL1       -0.2748
      3 N          11.3586   41.1339    8.7273 N.am    1  UNL1       -0.2815
      4 H          10.9343   40.3097    8.3959 H       1  UNL1        0.1549
      5 C           9.0368   41.8757    9.4138 C.3     1  UNL1        0.0797
      6 C           8.6509   41.4983   10.8485 C.3     1  UNL1        0.0283
      7 C           7.1583   41.7146   11.1236 C.3     1  UNL1        0.0959
      8 C           6.7277   42.8994    9.1014 C.3     1  UNL1        0.0959
      9 C           8.2436   43.0835    8.9125 C.3     1  UNL1        0.0283
     10 N           6.3938   41.6985    9.8771 N.3     1  UNL1       -0.1594
     11 C           3.9126   43.1194    9.4137 C.3     1  UNL1        0.1960
     12 O           4.0389   40.4904    9.9181 O.2     1  UNL1       -0.1572
     13 O           4.5635   42.0085   11.7648 O.2     1  UNL1       -0.1572
     14 S           4.7095   41.7851   10.2849 S.O2    1  UNL1        0.0457
     15 C          13.4225   42.1461    7.7719 C.ar    1  UNL1        0.1140
     16 C          12.7791   41.2435    8.5876 C.ar    1  UNL1        0.0906
     17 C          13.7447   40.4834    9.2227 C.ar    1  UNL1        0.1364
     18 N          14.7369   41.9088    7.9312 N.ar    1  UNL1       -0.2187
     19 N          14.9429   40.9256    8.7927 N.ar    1  UNL1       -0.1641
     20 C          15.8085   42.6335    7.2703 C.3     1  UNL1        0.2733
     21 O          15.3140   43.8227    6.7329 O.3     1  UNL1       -0.3311
     22 C          17.6495   44.0190    7.1193 C.3     1  UNL1        0.0347
     23 C          16.4504   44.5361    6.3537 C.3     1  UNL1        0.1446
@<TRIPOS>BOND
     1    22    23    1
     2    23    21    1
     3    20    21    1
     4    20    18    1
     5    16     3    1
     6    16    17   ar
     7     5     1    1
     8     5     6    1
     9     6     7    1
    10     7    10    1
    11     8    10    1
    12     8     9    1
    13     9     5    1
    14    18    15   ar
    15    18    19   ar
    16     3     1   am
    17    14    10    1
    18    14    11    1
    19    15    16   ar
    20     1     2    2
    21    17    19   ar
    22    14    12    2
    23    14    13    2
    24     3     4    1
@<TRIPOS>MOLECULE
MolPort-001-656-925 2804259 CHEMBL3487069 CSSS00133005194 MCULE-9047264522 PubChem-19582140 ZINC000002804259 ZINC02804259
 23 24 0 0 0
SMALL
GASTEIGER

@<TRIPOS>ATOM
      1 C          11.5181   41.0756    9.5227 C.2     1  UNL1        0.2258
      2 O          11.8041   42.2282    9.1028 O.2     1  UNL1       -0.2748
      3 N          10.1590   40.7043    9.7881 N.am    1  UNL1       -0.2815
      4 H           9.9972   39.7944   10.1275 H       1  UNL1        0.1549
      5 C          12.6152   40.0901    9.7429 C.3     1  UNL1        0.0797
      6 C          13.9325   40.6038    9.1507 C.3     1  UNL1        0.0283
      7 C          15.1536   39.9042    9.7587 C.3     1  UNL1        0.0959
      8 C          13.9446   38.8198   11.5026 C.3     1  UNL1        0.0959
      9 C          12.7540   39.7554   11.2287 C.3     1  UNL1        0.0283
     10 N          14.7820   38.6043   10.3162 N.3     1  UNL1       -0.1594
     11 C          17.6091   38.9478   10.8447 C.3     1  UNL1        0.1960
     12 O          16.0416   37.2650   12.2205 O.2     1  UNL1       -0.1572
     13 O          16.5470   36.6754    9.8996 O.2     1  UNL1       -0.1572
     14 S          16.2365   37.8121   10.8337 S.O2    1  UNL1        0.0457
     15 C           8.8137   42.3653    8.5119 C.ar    1  UNL1        0.1140
     16 C           9.0177   41.5479    9.6001 C.ar    1  UNL1        0.0906
     17 C           7.9390   41.7003   10.4525 C.ar    1  UNL1        0.1364
     18 N           7.6387   42.9812    8.7339 N.ar    1  UNL1       -0.2187
     19 N           7.1064   42.5932    9.8818 N.ar    1  UNL1       -0.1641
     20 C           7.0077   43.9364    7.8396 C.3     1  UNL1        0.2733
     21 O           6.0573   44.6820    8.5383 O.3     1  UNL1       -0.3311
     22 C           3.8604   43.8023    8.7435 C.3     1  UNL1        0.0347
     23 C           4.8681   44.4789    7.8390 C.3     1  UNL1        0.1446
@<TRIPOS>BOND
     1    22    23    1
     2    23    21    1
     3    20    21    1
     4    20    18    1
     5    16     3    1
     6    16    17   ar
     7     5     1    1
     8     5     6    1
     9     6     7    1
    10     7    10    1
    11     8    10    1
    12     8     9    1
    13     9     5    1
    14    18    15   ar
    15    18    19   ar
    16     3     1   am
    17    14    10    1
    18    14    11    1
    19    15    16   ar
    20     1     2    2
    21    17    19   ar
    22    14    12    2
    23    14    13    2
    24     3     4    1
@<TRIPOS>MOLECULE
MolPort-001-656-925 2804259 CHEMBL3487069 CSSS00133005194 MCULE-9047264522 PubChem-19582140 ZINC000002804259 ZINC02804259
 23 24 0 0 0
SMALL
GASTEIGER

@<TRIPOS>ATOM
      1 C          11.7510   41.1662    6.7887 C.2     1  UNL1        0.2258
      2 O          11.4565   40.7861    7.9529 O.2     1  UNL1       -0.2748
      3 N          10.8114   41.0412    5.7130 N.am    1  UNL1       -0.2815
      4 H          11.1020   41.3427    4.8220 H       1  UNL1        0.1549
      5 C          13.0977   41.7541    6.5358 C.3     1  UNL1        0.0797
      6 C          12.9746   43.2036    6.0527 C.3     1  UNL1        0.0283
      7 C          14.2732   43.9937    6.2518 C.3     1  UNL1        0.0959
      8 C          15.3421   42.3339    7.5865 C.3     1  UNL1        0.0959
      9 C          13.9802   41.6443    7.7800 C.3     1  UNL1        0.0283
     10 N          15.4216   43.0917    6.3317 N.3     1  UNL1       -0.1594
     11 C          17.5376   44.0908    8.0387 C.3     1  UNL1        0.1960
     12 O          17.8831   43.4998    5.4478 O.2     1  UNL1       -0.1572
     13 O          16.5291   45.4696    5.9731 O.2     1  UNL1       -0.1572
     14 S          16.8579   44.0634    6.3921 S.O2    1  UNL1        0.0457
     15 C           8.5007   41.0298    6.6394 C.ar    1  UNL1        0.1140
     16 C           9.4855   40.5139    5.8281 C.ar    1  UNL1        0.0906
     17 C           8.9599   39.4168    5.1695 C.ar    1  UNL1        0.1364
     18 N           7.4263   40.2421    6.4544 N.ar    1  UNL1       -0.2187
     19 N           7.6839   39.2815    5.5813 N.ar    1  UNL1       -0.1641
     20 C           6.1371   40.4126    7.1018 C.3     1  UNL1        0.2733
     21 O           6.2242   41.4099    8.0739 O.3     1  UNL1       -0.3311
     22 C           4.8319   42.4735    9.6779 C.3     1  UNL1        0.0347
     23 C           5.1000   41.2178    8.8761 C.3     1  UNL1        0.1446
@<TRIPOS>BOND
     1    22    23    1
     2    23    21    1
     3    20    21    1
     4    20    18    1
     5    16     3    1
     6    16    17   ar
     7     5     1    1
     8     5     6    1
     9     6     7    1
    10     7    10    1
    11     8    10    1
    12     8     9    1
    13     9     5    1
    14    18    15   ar
    15    18    19   ar
    16     3     1   am
    17    14    10    1
    18    14    11    1
    19    15    16   ar
    20     1     2    2
    21    17    19   ar
    22    14    12    2
    23    14    13    2
    24     3     4    1
@<TRIPOS>MOLECULE
MolPort-001-656-925 2804259 CHEMBL3487069 CSSS00133005194 MCULE-9047264522 PubChem-19582140 ZINC000002804259 ZINC02804259
 23 24 0 0 0
SMALL
GASTEIGER

@<TRIPOS>ATOM
      1 C          11.5407   40.9112    9.2879 C.2     1  UNL1        0.2258
      2 O          11.7170   42.1479    9.4497 O.2     1  UNL1       -0.2748
      3 N          10.2893   40.4018    8.8084 N.am    1  UNL1       -0.2815
      4 H          10.2052   39.4254    8.7144 H       1  UNL1        0.1549
      5 C          12.6555   39.9718    9.6012 C.3     1  UNL1        0.0797
      6 C          13.9638   40.4503    8.9617 C.3     1  UNL1        0.0283
      7 C          15.1968   39.8351    9.6335 C.3     1  UNL1        0.0959
      8 C          14.0058   38.9014   11.4743 C.3     1  UNL1        0.0959
      9 C          12.7986   39.7842   11.1123 C.3     1  UNL1        0.0283
     10 N          14.8485   38.5882   10.3137 N.3     1  UNL1       -0.1594
     11 C          17.6142   39.0925   11.0111 C.3     1  UNL1        0.1960
     12 O          16.0763   37.2945   12.2696 O.2     1  UNL1       -0.1572
     13 O          16.7494   36.7769    9.9742 O.2     1  UNL1       -0.1572
     14 S          16.3166   37.8763   10.9042 S.O2    1  UNL1        0.0457
     15 C           7.9016   41.0748    9.0168 C.ar    1  UNL1        0.1140
     16 C           9.1520   41.1962    8.4549 C.ar    1  UNL1        0.0906
     17 C           9.0947   42.2025    7.5075 C.ar    1  UNL1        0.1364
     18 N           7.1350   41.9932    8.4020 N.ar    1  UNL1       -0.2187
     19 N           7.8317   42.6726    7.5051 N.ar    1  UNL1       -0.1641
     20 C           5.7304   42.2385    8.6800 C.3     1  UNL1        0.2733
     21 O           5.0219   41.0373    8.6317 O.3     1  UNL1       -0.3311
     22 C           3.3839   42.2971    9.8031 C.3     1  UNL1        0.0347
     23 C           4.2363   41.0463    9.7837 C.3     1  UNL1        0.1446
@<TRIPOS>BOND
     1    22    23    1
     2    23    21    1
     3    20    21    1
     4    20    18    1
     5    16     3    1
     6    16    17   ar
     7     5     1    1
     8     5     6    1
     9     6     7    1
    10     7    10    1
    11     8    10    1
    12     8     9    1
    13     9     5    1
    14    18    15   ar
    15    18    19   ar
    16     3     1   am
    17    14    10    1
    18    14    11    1
    19    15    16   ar
    20     1     2    2
    21    17    19   ar
    22    14    12    2
    23    14    13    2
    24     3     4    1
@<TRIPOS>MOLECULE
MolPort-001-656-925 2804259 CHEMBL3487069 CSSS00133005194 MCULE-9047264522 PubChem-19582140 ZINC000002804259 ZINC02804259
 23 24 0 0 0
SMALL
GASTEIGER

@<TRIPOS>ATOM
      1 C           9.5974   41.4137    8.4859 C.2     1  UNL1        0.2258
      2 O          10.0624   41.8440    7.3972 O.2     1  UNL1       -0.2748
      3 N          10.4625   40.8794    9.4967 N.am    1  UNL1       -0.2815
      4 H          10.0413   40.5456   10.3215 H       1  UNL1        0.1549
      5 C           8.1254   41.4660    8.7179 C.3     1  UNL1        0.0797
      6 C           7.8117   41.4425   10.2181 C.3     1  UNL1        0.0283
      7 C           6.4099   41.9814   10.5261 C.3     1  UNL1        0.0959
      8 C           6.0088   42.8263    8.3343 C.3     1  UNL1        0.0959
      9 C           7.5104   42.6852    8.0292 C.3     1  UNL1        0.0283
     10 N           5.5445   41.8756    9.3520 N.3     1  UNL1       -0.1594
     11 C           2.7435   41.1389    9.3113 C.3     1  UNL1        0.1960
     12 O           3.8873   42.4917   11.3221 O.2     1  UNL1       -0.1572
     13 O           3.6074   43.6738    9.1974 O.2     1  UNL1       -0.1572
     14 S           3.9442   42.3501    9.8264 S.O2    1  UNL1        0.0457
     15 C          12.6826   40.0114   10.2144 C.ar    1  UNL1        0.1140
     16 C          11.8884   40.7914    9.4051 C.ar    1  UNL1        0.0906
     17 C          12.7136   41.4566    8.5162 C.ar    1  UNL1        0.1364
     18 N          13.9448   40.2253    9.8016 N.ar    1  UNL1       -0.2187
     19 N          13.9778   41.0793    8.7913 N.ar    1  UNL1       -0.1641
     20 C          15.1302   39.6003   10.3624 C.3     1  UNL1        0.2733
     21 O          15.7835   38.8572    9.3783 O.3     1  UNL1       -0.3311
     22 C          16.2728   36.5572    9.0422 C.3     1  UNL1        0.0347
     23 C          15.2467   37.5753    9.4917 C.3     1  UNL1        0.1446
@<TRIPOS>BOND
     1    22    23    1
     2    23    21    1
     3    20    21    1
     4    20    18    1
     5    16     3    1
     6    16    17   ar
     7     5     1    1
     8     5     6    1
     9     6     7    1
    10     7    10    1
    11     8    10    1
    12     8     9    1
    13     9     5    1
    14    18    15   ar
    15    18    19   ar
    16     3     1   am
    17    14    10    1
    18    14    11    1
    19    15    16   ar
    20     1     2    2
    21    17    19   ar
    22    14    12    2
    23    14    13    2
    24     3     4    1
@<TRIPOS>MOLECULE
MolPort-001-656-925 2804259 CHEMBL3487069 CSSS00133005194 MCULE-9047264522 PubChem-19582140 ZINC000002804259 ZINC02804259
 23 24 0 0 0
SMALL
GASTEIGER

@<TRIPOS>ATOM
      1 C          13.3341   41.7094    7.5369 C.2     1  UNL1        0.2258
      2 O          14.1710   42.1472    6.7035 O.2     1  UNL1       -0.2748
      3 N          13.7625   41.0206    8.7190 N.am    1  UNL1       -0.2815
      4 H          13.0630   40.6891    9.3273 H       1  UNL1        0.1549
      5 C          11.8795   41.9162    7.2821 C.3     1  UNL1        0.0797
      6 C          11.5205   41.5285    5.8432 C.3     1  UNL1        0.0283
      7 C          10.0229   41.2472    5.6747 C.3     1  UNL1        0.0959
      8 C           9.5297   41.2593    8.0061 C.3     1  UNL1        0.0959
      9 C          11.0357   41.1510    8.3027 C.3     1  UNL1        0.0283
     10 N           9.2494   41.9133    6.7219 N.3     1  UNL1       -0.1594
     11 C           6.6320   41.4289    7.8640 C.3     1  UNL1        0.1960
     12 O           7.0339   42.8953    5.6572 O.2     1  UNL1       -0.1572
     13 O           7.4020   40.4825    5.4772 O.2     1  UNL1       -0.1572
     14 S           7.5664   41.6824    6.3684 S.O2    1  UNL1        0.0457
     15 C          15.5414   39.7790    9.9402 C.ar    1  UNL1        0.1140
     16 C          15.1239   40.7754    9.0876 C.ar    1  UNL1        0.0906
     17 C          16.2432   41.4746    8.6731 C.ar    1  UNL1        0.1364
     18 N          16.8784   39.9031   10.0189 N.ar    1  UNL1       -0.2187
     19 N          17.3093   40.9045    9.2686 N.ar    1  UNL1       -0.1641
     20 C          17.7573   39.0523   10.8024 C.3     1  UNL1        0.2733
     21 O          17.3825   37.7168   10.6496 O.3     1  UNL1       -0.3311
     22 C          19.6433   37.7967    9.9253 C.3     1  UNL1        0.0347
     23 C          18.5844   37.0102   10.6680 C.3     1  UNL1        0.1446
@<TRIPOS>BOND
     1    22    23    1
     2    23    21    1
     3    20    21    1
     4    20    18    1
     5    16     3    1
     6    16    17   ar
     7     5     1    1
     8     5     6    1
     9     6     7    1
    10     7    10    1
    11     8    10    1
    12     8     9    1
    13     9     5    1
    14    18    15   ar
    15    18    19   ar
    16     3     1   am
    17    14    10    1
    18    14    11    1
    19    15    16   ar
    20     1     2    2
    21    17    19   ar
    22    14    12    2
    23    14    13    2
    24     3     4    1
@<TRIPOS>MOLECULE
MolPort-001-656-925 2804259 CHEMBL3487069 CSSS00133005194 MCULE-9047264522 PubChem-19582140 ZINC000002804259 ZINC02804259
 23 24 0 0 0
SMALL
GASTEIGER

@<TRIPOS>ATOM
      1 C          11.7352   40.9345   10.3180 C.2     1  UNL1        0.2258
      2 O          10.7847   40.3024   10.8505 O.2     1  UNL1       -0.2748
      3 N          11.5032   42.1675    9.6243 N.am    1  UNL1       -0.2815
      4 H          12.2824   42.6101    9.2167 H       1  UNL1        0.1549
      5 C          13.1179   40.3851   10.4169 C.3     1  UNL1        0.0797
      6 C          13.2378   39.4294   11.6093 C.3     1  UNL1        0.0283
      7 C          14.4352   38.4815   11.4749 C.3     1  UNL1        0.0959
      8 C          14.9116   39.0434    9.2086 C.3     1  UNL1        0.0959
      9 C          13.5292   39.7114    9.1069 C.3     1  UNL1        0.0283
     10 N          15.4432   39.0440   10.5771 N.3     1  UNL1       -0.1594
     11 C          18.3330   38.9363   10.7427 C.3     1  UNL1        0.1960
     12 O          16.7218   37.0637   11.7815 O.2     1  UNL1       -0.1572
     13 O          16.8660   37.1844    9.3413 O.2     1  UNL1       -0.1572
     14 S          16.8259   37.9960   10.6065 S.O2    1  UNL1        0.0457
     15 C           9.2641   42.4366    8.5700 C.ar    1  UNL1        0.1140
     16 C          10.2315   42.8080    9.4757 C.ar    1  UNL1        0.0906
     17 C           9.7504   43.8912   10.1890 C.ar    1  UNL1        0.1364
     18 N           8.2434   43.2928    8.7554 N.ar    1  UNL1       -0.2187
     19 N           8.5175   44.1605    9.7163 N.ar    1  UNL1       -0.1641
     20 C           6.9890   43.2771    8.0230 C.3     1  UNL1        0.2733
     21 O           6.2071   44.3695    8.4007 O.3     1  UNL1       -0.3311
     22 C           3.9804   44.8995    7.7656 C.3     1  UNL1        0.0347
     23 C           4.9007   43.8818    8.4047 C.3     1  UNL1        0.1446
@<TRIPOS>BOND
     1    22    23    1
     2    23    21    1
     3    20    21    1
     4    20    18    1
     5    16     3    1
     6    16    17   ar
     7     5     1    1
     8     5     6    1
     9     6     7    1
    10     7    10    1
    11     8    10    1
    12     8     9    1
    13     9     5    1
    14    18    15   ar
    15    18    19   ar
    16     3     1   am
    17    14    10    1
    18    14    11    1
    19    15    16   ar
    20     1     2    2
    21    17    19   ar
    22    14    12    2
    23    14    13    2
    24     3     4    1
@<TRIPOS>MOLECULE
MolPort-001-656-925 2804259 CHEMBL3487069 CSSS00133005194 MCULE-9047264522 PubChem-19582140 ZINC000002804259 ZINC02804259
 23 24 0 0 0
SMALL
GASTEIGER

@<TRIPOS>ATOM
      1 C           9.9145   43.0949    9.8951 C.2     1  UNL1        0.2258
      2 O           9.8317   44.2087   10.4774 O.2     1  UNL1       -0.2748
      3 N           8.8079   42.5683    9.1510 N.am    1  UNL1       -0.2815
      4 H           8.9261   41.6870    8.7284 H       1  UNL1        0.1549
      5 C          11.1858   42.3209    9.9859 C.3     1  UNL1        0.0797
      6 C          10.9590   40.9884   10.7089 C.3     1  UNL1        0.0283
      7 C          12.0607   39.9673   10.4025 C.3     1  UNL1        0.0959
      8 C          13.0558   41.2329    8.6456 C.3     1  UNL1        0.0959
      9 C          11.7969   42.1164    8.5989 C.3     1  UNL1        0.0283
     10 N          13.2847   40.6400    9.9689 N.3     1  UNL1       -0.1594
     11 C          13.8962   37.9937    8.9624 C.3     1  UNL1        0.1960
     12 O          15.6685   40.0033    9.0102 O.2     1  UNL1       -0.1572
     13 O          15.0195   39.0350   11.1622 O.2     1  UNL1       -0.1572
     14 S          14.5225   39.4356    9.8007 S.O2    1  UNL1        0.0457
     15 C           6.3201   42.6382    9.2086 C.ar    1  UNL1        0.1140
     16 C           7.5453   43.2188    8.9720 C.ar    1  UNL1        0.0906
     17 C           7.3237   44.5128    8.5363 C.ar    1  UNL1        0.1364
     18 N           5.4070   43.5801    8.9115 N.ar    1  UNL1       -0.2187
     19 N           5.9893   44.7000    8.5137 N.ar    1  UNL1       -0.1641
     20 C           3.9673   43.4200    9.0213 C.3     1  UNL1        0.2733
     21 O           3.6617   42.0968    9.3419 O.3     1  UNL1       -0.3311
     22 C           3.7043   41.2371   11.5558 C.3     1  UNL1        0.0347
     23 C           3.0245   42.1734   10.5798 C.3     1  UNL1        0.1446
@<TRIPOS>BOND
     1    22    23    1
     2    23    21    1
     3    20    21    1
     4    20    18    1
     5    16     3    1
     6    16    17   ar
     7     5     1    1
     8     5     6    1
     9     6     7    1
    10     7    10    1
    11     8    10    1
    12     8     9    1
    13     9     5    1
    14    18    15   ar
    15    18    19   ar
    16     3     1   am
    17    14    10    1
    18    14    11    1
    19    15    16   ar
    20     1     2    2
    21    17    19   ar
    22    14    12    2
    23    14    13    2
    24     3     4    1
@<TRIPOS>MOLECULE
MolPort-001-656-925 2804259 CHEMBL3487069 CSSS00133005194 MCULE-9047264522 PubChem-19582140 ZINC000002804259 ZINC02804259
 23 24 0 0 0
SMALL
GASTEIGER

@<TRIPOS>ATOM
      1 C          12.6970   41.0942    7.2734 C.2     1  UNL1        0.2258
      2 O          13.2247   41.7879    6.3640 O.2     1  UNL1       -0.2748
      3 N          13.4674   40.6382    8.3933 N.am    1  UNL1       -0.2815
      4 H          13.0046   40.0883    9.0661 H       1  UNL1        0.1549
      5 C          11.2498   40.7484    7.1756 C.3     1  UNL1        0.0797
      6 C          10.3989   41.7468    7.9683 C.3     1  UNL1        0.0283
      7 C           8.9343   41.7490    7.5152 C.3     1  UNL1        0.0959
      8 C           9.2981   40.4105    5.5775 C.3     1  UNL1        0.0959
      9 C          10.8097   40.6640    5.7133 C.3     1  UNL1        0.0283
     10 N           8.5920   40.4859    6.8624 N.3     1  UNL1       -0.1594
     11 C           5.9598   40.9216    7.9900 C.3     1  UNL1        0.1960
     12 O           6.6005   41.5188    5.4573 O.2     1  UNL1       -0.1572
     13 O           6.4595   39.1470    6.0442 O.2     1  UNL1       -0.1572
     14 S           6.8893   40.5041    6.5285 S.O2    1  UNL1        0.0457
     15 C          15.5423   41.9730    8.0613 C.ar    1  UNL1        0.1140
     16 C          14.8542   40.9168    8.6135 C.ar    1  UNL1        0.0906
     17 C          15.7396   40.1969    9.3953 C.ar    1  UNL1        0.1364
     18 N          16.8041   41.8627    8.5142 N.ar    1  UNL1       -0.2187
     19 N          16.9348   40.8136    9.3103 N.ar    1  UNL1       -0.1641
     20 C          17.8929   42.7716    8.2000 C.3     1  UNL1        0.2733
     21 O          17.4293   44.0877    8.2142 O.3     1  UNL1       -0.3311
     22 C          17.9347   43.9114    5.8999 C.3     1  UNL1        0.0347
     23 C          16.9007   44.2877    6.9395 C.3     1  UNL1        0.1446
@<TRIPOS>BOND
     1    22    23    1
     2    23    21    1
     3    20    21    1
     4    20    18    1
     5    16     3    1
     6    16    17   ar
     7     5     1    1
     8     5     6    1
     9     6     7    1
    10     7    10    1
    11     8    10    1
    12     8     9    1
    13     9     5    1
    14    18    15   ar
    15    18    19   ar
    16     3     1   am
    17    14    10    1
    18    14    11    1
    19    15    16   ar
    20     1     2    2
    21    17    19   ar
    22    14    12    2
    23    14    13    2
    24     3     4    1
@<TRIPOS>MOLECULE
MolPort-001-656-925 2804259 CHEMBL3487069 CSSS00133005194 MCULE-9047264522 PubChem-19582140 ZINC000002804259 ZINC02804259
 23 24 0 0 0
SMALL
GASTEIGER

@<TRIPOS>ATOM
      1 C          12.8360   40.3201   10.2509 C.2     1  UNL1        0.2258
      2 O          13.1914   39.8538   11.3657 O.2     1  UNL1       -0.2748
      3 N          13.8066   40.6733    9.2566 N.am    1  UNL1       -0.2815
      4 H          13.4706   41.0456    8.4094 H       1  UNL1        0.1549
      5 C          11.3829   40.5028    9.9703 C.3     1  UNL1        0.0797
      6 C          10.6289   40.8926   11.2467 C.3     1  UNL1        0.0283
      7 C           9.2827   41.5607   10.9440 C.3     1  UNL1        0.0959
      8 C           9.6789   41.8132    8.6078 C.3     1  UNL1        0.0959
      9 C          11.1704   41.5242    8.8520 C.3     1  UNL1        0.0283
     10 N           8.8079   41.1895    9.6116 N.3     1  UNL1       -0.1594
     11 C           6.1995   41.4988   10.8325 C.3     1  UNL1        0.1960
     12 O           7.3103   43.3389    9.2320 O.2     1  UNL1       -0.1572
     13 O           6.5751   41.2500    8.1901 O.2     1  UNL1       -0.1572
     14 S           7.2155   41.8492    9.4116 S.O2    1  UNL1        0.0457
     15 C          15.8479   39.5431   10.1245 C.ar    1  UNL1        0.1140
     16 C          15.2242   40.5291    9.3944 C.ar    1  UNL1        0.0906
     17 C          16.2058   41.3312    8.8407 C.ar    1  UNL1        0.1364
     18 N          17.1668   39.7743    9.9969 N.ar    1  UNL1       -0.2187
     19 N          17.3939   40.8317    9.2343 N.ar    1  UNL1       -0.1641
     20 C          18.2224   38.9736   10.5927 C.3     1  UNL1        0.2733
     21 O          17.7352   37.7028   10.9011 O.3     1  UNL1       -0.3311
     22 C          19.5592   37.0427    9.5301 C.3     1  UNL1        0.0347
     23 C          18.8581   36.8770   10.8614 C.3     1  UNL1        0.1446
@<TRIPOS>BOND
     1    22    23    1
     2    23    21    1
     3    20    21    1
     4    20    18    1
     5    16     3    1
     6    16    17   ar
     7     5     1    1
     8     5     6    1
     9     6     7    1
    10     7    10    1
    11     8    10    1
    12     8     9    1
    13     9     5    1
    14    18    15   ar
    15    18    19   ar
    16     3     1   am
    17    14    10    1
    18    14    11    1
    19    15    16   ar
    20     1     2    2
    21    17    19   ar
    22    14    12    2
    23    14    13    2
    24     3     4    1
