@<TRIPOS>MOLECULE
MolPort-019-932-453 49155154 CSSS00159283058 MCULE-2916528771 PubChem-51136863 ZINC000049155154
 35 39 0 0 0
SMALL
GASTEIGER

@<TRIPOS>ATOM
      1 C          10.7008   40.3869   10.7977 C.ar    1  UNL1        0.2048
      2 C           9.0194   41.5486   10.3818 C.ar    1  UNL1        0.2511
      3 N          10.3421   40.9820   11.9533 N.ar    1  UNL1       -0.0559
      4 N           9.8893   40.7197    9.7710 N.ar    1  UNL1       -0.1896
      5 O           9.2994   41.6935   11.6526 O.2     1  UNL1       -0.3356
      6 C          14.0709   37.8069   10.4444 C.ar    1  UNL1        0.1318
      7 C          12.8260   37.3896    9.9525 C.ar    1  UNL1        0.0344
      8 C          11.7218   38.2344   10.0669 C.ar    1  UNL1        0.0076
      9 C          11.8587   39.4899   10.6662 C.ar    1  UNL1        0.0583
     10 C          13.1160   39.8736   11.1456 C.ar    1  UNL1        0.1034
     11 N          14.1797   39.0345   11.0280 N.ar    1  UNL1       -0.2291
     12 C          18.8421   36.1515    8.5169 C.3     1  UNL1        0.0897
     13 C          17.6238   37.2796   10.1633 C.3     1  UNL1        0.0939
     14 C          16.4304   37.2332   11.1126 C.3     1  UNL1        0.1095
     15 C          15.2569   35.8238    9.4154 C.3     1  UNL1        0.1095
     16 C          16.5139   35.9245    8.5525 C.3     1  UNL1        0.0939
     17 N          17.6996   36.0314    9.4038 N.3     1  UNL1       -0.2686
     18 N          15.2234   36.9556   10.3391 N.pl3   1  UNL1       -0.2904
     19 C           7.8894   42.2565    9.6904 C.3     1  UNL1        0.1378
     20 C           6.5782   41.5114    9.7380 C.3     1  UNL1        0.0270
     21 C           5.8059   42.0898    8.5783 C.3     1  UNL1        0.0192
     22 C           6.8276   42.8315    7.7236 C.3     1  UNL1        0.0728
     23 N           8.1550   42.6328    8.2967 N.3     1  UNL1       -0.2626
     24 C           8.7545   41.5283    7.5448 C.3     1  UNL1        0.0995
     25 C          10.1807   41.8286    7.2324 C.ar    1  UNL1       -0.0061
     26 C          10.9542   42.5965    8.1099 C.ar    1  UNL1       -0.0016
     27 C          12.2949   42.8594    7.8146 C.ar    1  UNL1        0.0144
     28 C          12.8742   42.3551    6.6446 C.ar    1  UNL1        0.0503
     29 C          12.0958   41.5797    5.7718 C.ar    1  UNL1        0.0144
     30 C          10.7550   41.3157    6.0661 C.ar    1  UNL1       -0.0016
     31 C          14.7836   43.8587    5.8293 C.2     1  UNL1        0.2266
     32 C          16.2472   43.9744    5.6023 C.3     1  UNL1        0.0949
     33 N          14.2531   42.6455    6.3773 N.am    1  UNL1       -0.2839
     34 O          14.0347   44.8271    5.5350 O.2     1  UNL1       -0.2748
     35 H          14.9026   41.9377    6.5926 H       1  UNL1        0.1549
@<TRIPOS>BOND
     1    12    17    1
     2    13    17    1
     3    13    14    1
     4    14    18    1
     5    15    18    1
     6    15    16    1
     7    16    17    1
     8     6    11   ar
     9     7     8   ar
    10     9    10   ar
    11     9     1    1
    12     1     4   ar
    13     2     5   ar
    14    19     2    1
    15    19    20    1
    16    19    23    1
    17    20    21    1
    18    21    22    1
    19    22    23    1
    20    24    23    1
    21    24    25    1
    22    26    27   ar
    23    28    33    1
    24    28    29   ar
    25    32    31    1
    26    30    25   ar
    27    18     6    1
    28     3     5   ar
    29    33    31   am
    30     6     7   ar
    31     8     9   ar
    32    10    11   ar
    33     1     3   ar
    34     2     4   ar
    35    25    26   ar
    36    27    28   ar
    37    31    34    2
    38    29    30   ar
    39    33    35    1
@<TRIPOS>MOLECULE
MolPort-019-932-453 49155154 CSSS00159283058 MCULE-2916528771 PubChem-51136863 ZINC000049155154
 35 39 0 0 0
SMALL
GASTEIGER

@<TRIPOS>ATOM
      1 C          10.4351   42.4594    9.7033 C.ar    1  UNL1        0.2048
      2 C           8.9241   43.7424    9.0552 C.ar    1  UNL1        0.2511
      3 N          10.5596   43.5990   10.4133 N.ar    1  UNL1       -0.0559
      4 N           9.4096   42.5060    8.8261 N.ar    1  UNL1       -0.1896
      5 O           9.6077   44.3674    9.9806 O.2     1  UNL1       -0.3356
      6 C          13.0397   39.1143   10.1093 C.ar    1  UNL1        0.1318
      7 C          12.4163   39.6472   11.2465 C.ar    1  UNL1        0.0344
      8 C          11.5622   40.7423   11.1143 C.ar    1  UNL1        0.0076
      9 C          11.3289   41.3013    9.8545 C.ar    1  UNL1        0.0583
     10 C          11.9677   40.7435    8.7416 C.ar    1  UNL1        0.1034
     11 N          12.7995   39.6782    8.8913 N.ar    1  UNL1       -0.2291
     12 C          15.5168   34.5913    8.4885 C.3     1  UNL1        0.0897
     13 C          15.5650   36.9097    8.7889 C.3     1  UNL1        0.0939
     14 C          15.3023   38.0700    9.7440 C.3     1  UNL1        0.1095
     15 C          13.4660   36.7038   10.7468 C.3     1  UNL1        0.1095
     16 C          13.8269   35.6009    9.7529 C.3     1  UNL1        0.0939
     17 N          15.2592   35.6432    9.4547 N.3     1  UNL1       -0.2686
     18 N          13.9239   37.9871   10.2186 N.pl3   1  UNL1       -0.2904
     19 C           7.7675   44.3531    8.3165 C.3     1  UNL1        0.1378
     20 C           6.6961   44.9197    9.2153 C.3     1  UNL1        0.0270
     21 C           5.4762   44.9490    8.3281 C.3     1  UNL1        0.0192
     22 C           5.8088   44.0668    7.1301 C.3     1  UNL1        0.0728
     23 N           7.1258   43.4718    7.3337 N.3     1  UNL1       -0.2626
     24 C           6.8814   42.1372    7.8847 C.3     1  UNL1        0.0995
     25 C           7.6171   41.1085    7.0958 C.ar    1  UNL1       -0.0061
     26 C           8.5808   41.4891    6.1553 C.ar    1  UNL1       -0.0016
     27 C           9.2756   40.5157    5.4318 C.ar    1  UNL1        0.0144
     28 C           9.0173   39.1567    5.6441 C.ar    1  UNL1        0.0503
     29 C           8.0549   38.7807    6.5935 C.ar    1  UNL1        0.0144
     30 C           7.3596   39.7531    7.3181 C.ar    1  UNL1       -0.0016
     31 C           9.6922   37.9863    3.4656 C.2     1  UNL1        0.2266
     32 C          10.5161   36.9150    2.8487 C.3     1  UNL1        0.0949
     33 N           9.7517   38.1880    4.8830 N.am    1  UNL1       -0.2839
     34 O           8.9548   38.6971    2.7331 O.2     1  UNL1       -0.2748
     35 H          10.3601   37.6005    5.3869 H       1  UNL1        0.1549
@<TRIPOS>BOND
     1    12    17    1
     2    13    17    1
     3    13    14    1
     4    14    18    1
     5    15    18    1
     6    15    16    1
     7    16    17    1
     8     6    11   ar
     9     7     8   ar
    10     9    10   ar
    11     9     1    1
    12     1     4   ar
    13     2     5   ar
    14    19     2    1
    15    19    20    1
    16    19    23    1
    17    20    21    1
    18    21    22    1
    19    22    23    1
    20    24    23    1
    21    24    25    1
    22    26    27   ar
    23    28    33    1
    24    28    29   ar
    25    32    31    1
    26    30    25   ar
    27    18     6    1
    28     3     5   ar
    29    33    31   am
    30     6     7   ar
    31     8     9   ar
    32    10    11   ar
    33     1     3   ar
    34     2     4   ar
    35    25    26   ar
    36    27    28   ar
    37    31    34    2
    38    29    30   ar
    39    33    35    1
@<TRIPOS>MOLECULE
MolPort-019-932-453 49155154 CSSS00159283058 MCULE-2916528771 PubChem-51136863 ZINC000049155154
 35 39 0 0 0
SMALL
GASTEIGER

@<TRIPOS>ATOM
      1 C          11.4106   39.2733   10.0048 C.ar    1  UNL1        0.2048
      2 C           9.9771   40.7805    9.8529 C.ar    1  UNL1        0.2511
      3 N          11.5956   40.0954   11.0576 N.ar    1  UNL1       -0.0559
      4 N          10.3935   39.6709    9.2107 N.ar    1  UNL1       -0.1896
      5 O          10.6904   41.0158   10.9254 O.2     1  UNL1       -0.3356
      6 C          13.7754   35.8132    9.2474 C.ar    1  UNL1        0.1318
      7 C          14.1686   37.0494    8.7155 C.ar    1  UNL1        0.0344
      8 C          13.3952   38.1835    8.9639 C.ar    1  UNL1        0.0076
      9 C          12.2372   38.0859    9.7409 C.ar    1  UNL1        0.0583
     10 C          11.8753   36.8363   10.2559 C.ar    1  UNL1        0.1034
     11 N          12.6403   35.7417    9.9997 N.ar    1  UNL1       -0.2291
     12 C          15.7578   31.6960    6.3597 C.3     1  UNL1        0.0897
     13 C          16.0329   33.8413    7.2484 C.3     1  UNL1        0.0939
     14 C          15.9156   34.7253    8.4862 C.3     1  UNL1        0.1095
     15 C          13.9994   33.2939    9.2098 C.3     1  UNL1        0.1095
     16 C          14.2183   32.4674    7.9434 C.3     1  UNL1        0.0939
     17 N          15.6359   32.4725    7.5797 N.3     1  UNL1       -0.2686
     18 N          14.5544   34.6303    9.0061 N.pl3   1  UNL1       -0.2904
     19 C           8.8602   41.6678    9.3825 C.3     1  UNL1        0.1378
     20 C           7.5688   40.9364    9.1106 C.3     1  UNL1        0.0270
     21 C           6.8335   41.8632    8.1743 C.3     1  UNL1        0.0192
     22 C           7.8717   42.8598    7.6712 C.3     1  UNL1        0.0728
     23 N           9.1772   42.4938    8.2112 N.3     1  UNL1       -0.2626
     24 C           9.8391   41.7130    7.1640 C.3     1  UNL1        0.0995
     25 C          11.2899   42.0502    7.1054 C.ar    1  UNL1       -0.0061
     26 C          12.0587   41.6914    5.9926 C.ar    1  UNL1       -0.0016
     27 C          13.4149   42.0258    5.9414 C.ar    1  UNL1        0.0144
     28 C          14.0125   42.7238    6.9971 C.ar    1  UNL1        0.0503
     29 C          13.2350   43.0872    8.1073 C.ar    1  UNL1        0.0144
     30 C          11.8786   42.7537    8.1597 C.ar    1  UNL1       -0.0016
     31 C          15.9797   44.1941    6.2626 C.2     1  UNL1        0.2266
     32 C          17.4561   44.3588    6.2530 C.3     1  UNL1        0.0949
     33 N          15.4062   43.0498    6.9069 N.am    1  UNL1       -0.2839
     34 O          15.2580   45.0613    5.7035 O.2     1  UNL1       -0.2748
     35 H          16.0344   42.4220    7.3319 H       1  UNL1        0.1549
@<TRIPOS>BOND
     1    12    17    1
     2    13    17    1
     3    13    14    1
     4    14    18    1
     5    15    18    1
     6    15    16    1
     7    16    17    1
     8     6    11   ar
     9     7     8   ar
    10     9    10   ar
    11     9     1    1
    12     1     4   ar
    13     2     5   ar
    14    19     2    1
    15    19    20    1
    16    19    23    1
    17    20    21    1
    18    21    22    1
    19    22    23    1
    20    24    23    1
    21    24    25    1
    22    26    27   ar
    23    28    33    1
    24    28    29   ar
    25    32    31    1
    26    30    25   ar
    27    18     6    1
    28     3     5   ar
    29    33    31   am
    30     6     7   ar
    31     8     9   ar
    32    10    11   ar
    33     1     3   ar
    34     2     4   ar
    35    25    26   ar
    36    27    28   ar
    37    31    34    2
    38    29    30   ar
    39    33    35    1
@<TRIPOS>MOLECULE
MolPort-019-932-453 49155154 CSSS00159283058 MCULE-2916528771 PubChem-51136863 ZINC000049155154
 35 39 0 0 0
SMALL
GASTEIGER

@<TRIPOS>ATOM
      1 C          11.3940   41.5102    9.8477 C.ar    1  UNL1        0.2048
      2 C           9.7320   42.4560    9.0154 C.ar    1  UNL1        0.2511
      3 N          10.7858   42.1811   10.8468 N.ar    1  UNL1       -0.0559
      4 N          10.7600   41.6579    8.6647 N.ar    1  UNL1       -0.1896
      5 O           9.7635   42.7545   10.2899 O.2     1  UNL1       -0.3356
      6 C          14.9688   39.2469   10.3341 C.ar    1  UNL1        0.1318
      7 C          13.9589   39.1612   11.3029 C.ar    1  UNL1        0.0344
      8 C          12.7872   39.9014   11.1440 C.ar    1  UNL1        0.0076
      9 C          12.6223   40.7207   10.0234 C.ar    1  UNL1        0.0583
     10 C          13.6506   40.7816    9.0766 C.ar    1  UNL1        0.1034
     11 N          14.7869   40.0552    9.2511 N.ar    1  UNL1       -0.2291
     12 C          19.6523   37.0673    8.7421 C.3     1  UNL1        0.0897
     13 C          18.5069   38.7926    9.8279 C.3     1  UNL1        0.0939
     14 C          17.4325   39.1552   10.8487 C.3     1  UNL1        0.1095
     15 C          16.2361   37.0624   10.1905 C.3     1  UNL1        0.1095
     16 C          17.3769   36.7912    9.2109 C.3     1  UNL1        0.0939
     17 N          18.6293   37.3375    9.7354 N.3     1  UNL1       -0.2686
     18 N          16.1850   38.4949   10.4746 N.pl3   1  UNL1       -0.2904
     19 C           8.6957   42.9781    8.0616 C.3     1  UNL1        0.1378
     20 C           7.5683   43.7258    8.7299 C.3     1  UNL1        0.0270
     21 C           6.4525   43.6526    7.7170 C.3     1  UNL1        0.0192
     22 C           6.8606   42.5717    6.7224 C.3     1  UNL1        0.0728
     23 N           8.1137   41.9701    7.1673 N.3     1  UNL1       -0.2626
     24 C           7.7387   40.7558    7.8950 C.3     1  UNL1        0.0995
     25 C           6.7079   41.0672    8.9256 C.ar    1  UNL1       -0.0061
     26 C           5.3462   41.0138    8.6078 C.ar    1  UNL1       -0.0016
     27 C           4.3875   41.2930    9.5859 C.ar    1  UNL1        0.0144
     28 C           4.7799   41.6231   10.8881 C.ar    1  UNL1        0.0503
     29 C           6.1466   41.6683   11.2030 C.ar    1  UNL1        0.0144
     30 C           7.1063   41.3889   10.2259 C.ar    1  UNL1       -0.0016
     31 C           2.3853   42.1863   11.6093 C.2     1  UNL1        0.2266
     32 C           1.4794   42.4715   12.7517 C.3     1  UNL1        0.0949
     33 N           3.7665   41.9018   11.8640 N.am    1  UNL1       -0.2839
     34 O           1.9247   42.2011   10.4375 O.2     1  UNL1       -0.2748
     35 H           4.0492   41.8971   12.8070 H       1  UNL1        0.1549
@<TRIPOS>BOND
     1    12    17    1
     2    13    17    1
     3    13    14    1
     4    14    18    1
     5    15    18    1
     6    15    16    1
     7    16    17    1
     8     6    11   ar
     9     7     8   ar
    10     9    10   ar
    11     9     1    1
    12     1     4   ar
    13     2     5   ar
    14    19     2    1
    15    19    20    1
    16    19    23    1
    17    20    21    1
    18    21    22    1
    19    22    23    1
    20    24    23    1
    21    24    25    1
    22    26    27   ar
    23    28    33    1
    24    28    29   ar
    25    32    31    1
    26    30    25   ar
    27    18     6    1
    28     3     5   ar
    29    33    31   am
    30     6     7   ar
    31     8     9   ar
    32    10    11   ar
    33     1     3   ar
    34     2     4   ar
    35    25    26   ar
    36    27    28   ar
    37    31    34    2
    38    29    30   ar
    39    33    35    1
@<TRIPOS>MOLECULE
MolPort-019-932-453 49155154 CSSS00159283058 MCULE-2916528771 PubChem-51136863 ZINC000049155154
 35 39 0 0 0
SMALL
GASTEIGER

@<TRIPOS>ATOM
      1 C          14.1695   36.8037    9.4249 C.ar    1  UNL1        0.2048
      2 C          15.8124   35.5949    8.9901 C.ar    1  UNL1        0.2511
      3 N          13.7332   35.5280    9.4509 N.ar    1  UNL1       -0.0559
      4 N          15.4849   36.8945    9.1340 N.ar    1  UNL1       -0.1896
      5 O          14.7794   34.8118    9.1746 O.2     1  UNL1       -0.3356
      6 C          11.6341   40.1533   10.1249 C.ar    1  UNL1        0.1318
      7 C          12.9669   40.1924   10.5583 C.ar    1  UNL1        0.0344
      8 C          13.7984   39.0961   10.3286 C.ar    1  UNL1        0.0076
      9 C          13.3042   37.9678    9.6678 C.ar    1  UNL1        0.0583
     10 C          11.9692   37.9637    9.2489 C.ar    1  UNL1        0.1034
     11 N          11.1733   39.0407    9.4853 N.ar    1  UNL1       -0.2291
     12 C           7.2639   43.2442    9.3710 C.3     1  UNL1        0.0897
     13 C           8.3624   41.5856   10.5998 C.3     1  UNL1        0.0939
     14 C           9.6532   41.1721   11.3002 C.3     1  UNL1        0.1095
     15 C          10.8949   42.5141    9.5969 C.3     1  UNL1        0.1095
     16 C           9.5422   42.8769    8.9861 C.3     1  UNL1        0.0939
     17 N           8.5170   42.9242   10.0295 N.3     1  UNL1       -0.2686
     18 N          10.7572   41.2691   10.3495 N.pl3   1  UNL1       -0.2904
     19 C          17.1814   35.0976    8.6228 C.3     1  UNL1        0.1378
     20 C          18.2852   36.0936    8.8800 C.3     1  UNL1        0.0270
     21 C          19.3942   35.6282    7.9691 C.3     1  UNL1        0.0192
     22 C          18.7494   34.6554    6.9882 C.3     1  UNL1        0.0728
     23 N          17.3135   34.6091    7.2449 N.3     1  UNL1       -0.2626
     24 C          16.7051   35.5324    6.2848 C.3     1  UNL1        0.0995
     25 C          17.3110   35.3496    4.9353 C.ar    1  UNL1       -0.0061
     26 C          17.1131   34.1620    4.2221 C.ar    1  UNL1       -0.0016
     27 C          17.6733   34.0070    2.9510 C.ar    1  UNL1        0.0144
     28 C          18.4310   35.0364    2.3808 C.ar    1  UNL1        0.0503
     29 C          18.6203   36.2278    3.0975 C.ar    1  UNL1        0.0144
     30 C          18.0602   36.3843    4.3686 C.ar    1  UNL1       -0.0016
     31 C          18.3058   34.9745   -0.1789 C.2     1  UNL1        0.2266
     32 C          19.0446   34.7115   -1.4407 C.3     1  UNL1        0.0949
     33 N          18.9883   34.8399    1.0740 N.am    1  UNL1       -0.2839
     34 O          17.0932   35.3092   -0.2316 O.2     1  UNL1       -0.2748
     35 H          19.9387   34.5862    1.0335 H       1  UNL1        0.1549
@<TRIPOS>BOND
     1    12    17    1
     2    13    17    1
     3    13    14    1
     4    14    18    1
     5    15    18    1
     6    15    16    1
     7    16    17    1
     8     6    11   ar
     9     7     8   ar
    10     9    10   ar
    11     9     1    1
    12     1     4   ar
    13     2     5   ar
    14    19     2    1
    15    19    20    1
    16    19    23    1
    17    20    21    1
    18    21    22    1
    19    22    23    1
    20    24    23    1
    21    24    25    1
    22    26    27   ar
    23    28    33    1
    24    28    29   ar
    25    32    31    1
    26    30    25   ar
    27    18     6    1
    28     3     5   ar
    29    33    31   am
    30     6     7   ar
    31     8     9   ar
    32    10    11   ar
    33     1     3   ar
    34     2     4   ar
    35    25    26   ar
    36    27    28   ar
    37    31    34    2
    38    29    30   ar
    39    33    35    1
@<TRIPOS>MOLECULE
MolPort-019-932-453 49155154 CSSS00159283058 MCULE-2916528771 PubChem-51136863 ZINC000049155154
 35 39 0 0 0
SMALL
GASTEIGER

@<TRIPOS>ATOM
      1 C           5.2676   41.7445    8.7302 C.ar    1  UNL1        0.2048
      2 C           6.7683   41.0422    7.4636 C.ar    1  UNL1        0.2511
      3 N           5.3995   42.6515    7.7411 N.ar    1  UNL1       -0.0559
      4 N           6.1192   40.7053    8.5959 N.ar    1  UNL1       -0.1896
      5 O           6.3393   42.1808    6.9800 O.2     1  UNL1       -0.3356
      6 C           2.4819   42.1478   11.9263 C.ar    1  UNL1        0.1318
      7 C           3.6838   41.4583   12.1396 C.ar    1  UNL1        0.0344
      8 C           4.5974   41.3265   11.0936 C.ar    1  UNL1        0.0076
      9 C           4.3150   41.8818    9.8422 C.ar    1  UNL1        0.0583
     10 C           3.1060   42.5635    9.6654 C.ar    1  UNL1        0.1034
     11 N           2.2267   42.6782   10.6963 N.ar    1  UNL1       -0.2291
     12 C          -2.2188   43.5660   14.1876 C.3     1  UNL1        0.0897
     13 C          -0.8576   41.9080   13.2572 C.3     1  UNL1        0.0939
     14 C           0.5251   41.2635   13.2426 C.3     1  UNL1        0.1095
     15 C           1.4717   43.5065   13.8057 C.3     1  UNL1        0.1095
     16 C           0.0405   44.0416   13.8089 C.3     1  UNL1        0.0939
     17 N          -0.8862   42.9932   14.2382 N.3     1  UNL1       -0.2686
     18 N           1.5243   42.2972   12.9870 N.pl3   1  UNL1       -0.2904
     19 C           7.8770   40.2384    6.8466 C.3     1  UNL1        0.1378
     20 C           8.6874   39.4456    7.8424 C.3     1  UNL1        0.0270
     21 C           9.9890   39.2035    7.1190 C.3     1  UNL1        0.0192
     22 C           9.9980   40.1694    5.9394 C.3     1  UNL1        0.0728
     23 N           8.8036   41.0054    6.0052 N.3     1  UNL1       -0.2626
     24 C           9.2204   42.2488    6.6570 C.3     1  UNL1        0.0995
     25 C           9.4930   42.0093    8.1028 C.ar    1  UNL1       -0.0061
     26 C           8.5478   42.3621    9.0724 C.ar    1  UNL1       -0.0016
     27 C           8.8073   42.1193   10.4242 C.ar    1  UNL1        0.0144
     28 C          10.0089   41.5195   10.8179 C.ar    1  UNL1        0.0503
     29 C          10.9502   41.1613    9.8408 C.ar    1  UNL1        0.0144
     30 C          10.6917   41.4032    8.4885 C.ar    1  UNL1       -0.0016
     31 C           9.2478   41.2327   13.2489 C.2     1  UNL1        0.2266
     32 C           9.6750   40.9970   14.6521 C.3     1  UNL1        0.0949
     33 N          10.2379   41.2856   12.2143 N.am    1  UNL1       -0.2839
     34 O           8.0242   41.3835   12.9931 O.2     1  UNL1       -0.2748
     35 H          11.1726   41.1471   12.4907 H       1  UNL1        0.1549
@<TRIPOS>BOND
     1    12    17    1
     2    13    17    1
     3    13    14    1
     4    14    18    1
     5    15    18    1
     6    15    16    1
     7    16    17    1
     8     6    11   ar
     9     7     8   ar
    10     9    10   ar
    11     9     1    1
    12     1     4   ar
    13     2     5   ar
    14    19     2    1
    15    19    20    1
    16    19    23    1
    17    20    21    1
    18    21    22    1
    19    22    23    1
    20    24    23    1
    21    24    25    1
    22    26    27   ar
    23    28    33    1
    24    28    29   ar
    25    32    31    1
    26    30    25   ar
    27    18     6    1
    28     3     5   ar
    29    33    31   am
    30     6     7   ar
    31     8     9   ar
    32    10    11   ar
    33     1     3   ar
    34     2     4   ar
    35    25    26   ar
    36    27    28   ar
    37    31    34    2
    38    29    30   ar
    39    33    35    1
@<TRIPOS>MOLECULE
MolPort-019-932-453 49155154 CSSS00159283058 MCULE-2916528771 PubChem-51136863 ZINC000049155154
 35 39 0 0 0
SMALL
GASTEIGER

@<TRIPOS>ATOM
      1 C           9.2438   40.3136    7.3992 C.ar    1  UNL1        0.2048
      2 C           7.6527   41.5704    6.9109 C.ar    1  UNL1        0.2511
      3 N           8.8753   40.0052    6.1392 N.ar    1  UNL1       -0.0559
      4 N           8.4928   41.3021    7.9303 N.ar    1  UNL1       -0.1896
      5 O           7.8867   40.8035    5.8758 O.2     1  UNL1       -0.3356
      6 C          12.4048   38.3825    9.5009 C.ar    1  UNL1        0.1318
      7 C          11.2385   37.6666    9.1961 C.ar    1  UNL1        0.0344
      8 C          10.2030   38.2980    8.5068 C.ar    1  UNL1        0.0076
      9 C          10.3309   39.6355    8.1211 C.ar    1  UNL1        0.0583
     10 C          11.5089   40.3190    8.4418 C.ar    1  UNL1        0.1034
     11 N          12.5057   39.6872    9.1173 N.ar    1  UNL1       -0.2291
     12 C          17.5385   37.5689   10.9854 C.3     1  UNL1        0.0897
     13 C          15.4449   38.5106   11.4301 C.3     1  UNL1        0.0939
     14 C          13.9385   38.2784   11.4959 C.3     1  UNL1        0.1095
     15 C          14.2102   36.6171    9.6493 C.3     1  UNL1        0.1095
     16 C          15.7081   36.9174    9.6821 C.3     1  UNL1        0.0939
     17 N          16.1191   37.2715   11.0414 N.3     1  UNL1       -0.2686
     18 N          13.4856   37.7554   10.2100 N.pl3   1  UNL1       -0.2904
     19 C           6.5533   42.5927    6.9603 C.3     1  UNL1        0.1378
     20 C           7.0415   44.0110    7.1242 C.3     1  UNL1        0.0270
     21 C           5.8403   44.7307    7.6857 C.3     1  UNL1        0.0192
     22 C           4.8844   43.6420    8.1602 C.3     1  UNL1        0.0728
     23 N           5.5195   42.3416    7.9716 N.3     1  UNL1       -0.2626
     24 C           6.1060   41.9908    9.2668 C.3     1  UNL1        0.0995
     25 C           5.0357   41.8144   10.2891 C.ar    1  UNL1       -0.0061
     26 C           4.0460   42.7892   10.4577 C.ar    1  UNL1       -0.0016
     27 C           3.0383   42.6068   11.4089 C.ar    1  UNL1        0.0144
     28 C           3.0082   41.4495   12.1954 C.ar    1  UNL1        0.0503
     29 C           3.9991   40.4720   12.0172 C.ar    1  UNL1        0.0144
     30 C           5.0072   40.6531   11.0660 C.ar    1  UNL1       -0.0016
     31 C           0.8768   42.2078   13.4009 C.2     1  UNL1        0.2266
     32 C          -0.1152   41.8931   14.4610 C.3     1  UNL1        0.0949
     33 N           1.9575   41.2982   13.1598 N.am    1  UNL1       -0.2839
     34 O           0.7521   43.2685   12.7339 O.2     1  UNL1       -0.2748
     35 H           1.9811   40.4847   13.7138 H       1  UNL1        0.1549
@<TRIPOS>BOND
     1    12    17    1
     2    13    17    1
     3    13    14    1
     4    14    18    1
     5    15    18    1
     6    15    16    1
     7    16    17    1
     8     6    11   ar
     9     7     8   ar
    10     9    10   ar
    11     9     1    1
    12     1     4   ar
    13     2     5   ar
    14    19     2    1
    15    19    20    1
    16    19    23    1
    17    20    21    1
    18    21    22    1
    19    22    23    1
    20    24    23    1
    21    24    25    1
    22    26    27   ar
    23    28    33    1
    24    28    29   ar
    25    32    31    1
    26    30    25   ar
    27    18     6    1
    28     3     5   ar
    29    33    31   am
    30     6     7   ar
    31     8     9   ar
    32    10    11   ar
    33     1     3   ar
    34     2     4   ar
    35    25    26   ar
    36    27    28   ar
    37    31    34    2
    38    29    30   ar
    39    33    35    1
@<TRIPOS>MOLECULE
MolPort-019-932-453 49155154 CSSS00159283058 MCULE-2916528771 PubChem-51136863 ZINC000049155154
 35 39 0 0 0
SMALL
GASTEIGER

@<TRIPOS>ATOM
      1 C           5.5218   41.8794    8.7721 C.ar    1  UNL1        0.2048
      2 C           6.8930   41.1560    7.3771 C.ar    1  UNL1        0.2511
      3 N           5.9896   42.9474    8.0946 N.ar    1  UNL1       -0.0559
      4 N           6.0698   40.7193    8.3511 N.ar    1  UNL1       -0.1896
      5 O           6.8369   42.4572    7.2427 O.2     1  UNL1       -0.3356
      6 C           2.6485   42.1574   11.9034 C.ar    1  UNL1        0.1318
      7 C           3.7071   41.2450   12.0153 C.ar    1  UNL1        0.0344
      8 C           4.6493   41.1539   10.9906 C.ar    1  UNL1        0.0076
      9 C           4.5380   41.9703    9.8614 C.ar    1  UNL1        0.0583
     10 C           3.4690   42.8697    9.7835 C.ar    1  UNL1        0.1034
     11 N           2.5587   42.9412   10.7911 N.ar    1  UNL1       -0.2291
     12 C          -2.1112   43.4888   14.0927 C.3     1  UNL1        0.0897
     13 C          -0.7212   41.8651   13.1444 C.3     1  UNL1        0.0939
     14 C           0.6641   41.2259   13.1433 C.3     1  UNL1        0.1095
     15 C           1.5876   43.4533   13.7990 C.3     1  UNL1        0.1095
     16 C           0.1546   43.9834   13.7841 C.3     1  UNL1        0.0939
     17 N          -0.7780   42.9190   14.1577 N.3     1  UNL1       -0.2686
     18 N           1.6649   42.2704   12.9446 N.pl3   1  UNL1       -0.2904
     19 C           7.7981   40.2718    6.5675 C.3     1  UNL1        0.1378
     20 C           7.7860   38.8251    6.9960 C.3     1  UNL1        0.0270
     21 C           9.0942   38.2931    6.4651 C.3     1  UNL1        0.0192
     22 C           9.9308   39.5174    6.1110 C.3     1  UNL1        0.0728
     23 N           9.1943   40.7183    6.4921 N.3     1  UNL1       -0.2626
     24 C           9.7092   41.1031    7.8080 C.3     1  UNL1        0.0995
     25 C          11.1781   41.3461    7.7384 C.ar    1  UNL1       -0.0061
     26 C          11.7440   41.9646    6.6180 C.ar    1  UNL1       -0.0016
     27 C          13.1207   42.2014    6.5696 C.ar    1  UNL1        0.0144
     28 C          13.9416   41.8270    7.6395 C.ar    1  UNL1        0.0503
     29 C          13.3678   41.2136    8.7635 C.ar    1  UNL1        0.0144
     30 C          11.9911   40.9766    8.8134 C.ar    1  UNL1       -0.0016
     31 C          15.9712   43.3204    7.1684 C.2     1  UNL1        0.2266
     32 C          17.4538   43.4011    7.1171 C.3     1  UNL1        0.0949
     33 N          15.3492   42.0880    7.5529 N.am    1  UNL1       -0.2839
     34 O          15.2870   44.3349    6.8717 O.2     1  UNL1       -0.2748
     35 H          15.9508   41.3429    7.7815 H       1  UNL1        0.1549
@<TRIPOS>BOND
     1    12    17    1
     2    13    17    1
     3    13    14    1
     4    14    18    1
     5    15    18    1
     6    15    16    1
     7    16    17    1
     8     6    11   ar
     9     7     8   ar
    10     9    10   ar
    11     9     1    1
    12     1     4   ar
    13     2     5   ar
    14    19     2    1
    15    19    20    1
    16    19    23    1
    17    20    21    1
    18    21    22    1
    19    22    23    1
    20    24    23    1
    21    24    25    1
    22    26    27   ar
    23    28    33    1
    24    28    29   ar
    25    32    31    1
    26    30    25   ar
    27    18     6    1
    28     3     5   ar
    29    33    31   am
    30     6     7   ar
    31     8     9   ar
    32    10    11   ar
    33     1     3   ar
    34     2     4   ar
    35    25    26   ar
    36    27    28   ar
    37    31    34    2
    38    29    30   ar
    39    33    35    1
@<TRIPOS>MOLECULE
MolPort-019-932-453 49155154 CSSS00159283058 MCULE-2916528771 PubChem-51136863 ZINC000049155154
 35 39 0 0 0
SMALL
GASTEIGER

@<TRIPOS>ATOM
      1 C          13.6529   38.2611   10.5098 C.ar    1  UNL1        0.2048
      2 C          15.5891   37.4883   10.4500 C.ar    1  UNL1        0.2511
      3 N          13.7382   37.3452   11.4958 N.ar    1  UNL1       -0.0559
      4 N          14.8056   38.3842    9.8173 N.ar    1  UNL1       -0.1896
      5 O          14.9509   36.8889   11.4235 O.2     1  UNL1       -0.3356
      6 C          10.1085   40.4502    9.6250 C.ar    1  UNL1        0.1318
      7 C          10.9354   40.8691   10.6769 C.ar    1  UNL1        0.0344
      8 C          12.0972   40.1533   10.9668 C.ar    1  UNL1        0.0076
      9 C          12.4339   39.0271   10.2101 C.ar    1  UNL1        0.0583
     10 C          11.5856   38.6382    9.1676 C.ar    1  UNL1        0.1034
     11 N          10.4557   39.3470    8.9027 N.ar    1  UNL1       -0.2291
     12 C           4.7807   41.2054    9.1104 C.3     1  UNL1        0.0897
     13 C           6.7399   41.5009   10.3522 C.3     1  UNL1        0.0939
     14 C           8.2016   41.9371   10.3294 C.3     1  UNL1        0.1095
     15 C           8.3114   41.1132    7.9729 C.3     1  UNL1        0.1095
     16 C           6.8380   40.7300    8.1030 C.3     1  UNL1        0.0939
     17 N           6.1593   41.6494    9.0174 N.3     1  UNL1       -0.2686
     18 N           8.9065   41.1699    9.3063 N.pl3   1  UNL1       -0.2904
     19 C          17.0081   37.1782   10.0672 C.3     1  UNL1        0.1378
     20 C          17.8306   36.5891   11.1867 C.3     1  UNL1        0.0270
     21 C          19.2502   36.8814   10.7677 C.3     1  UNL1        0.0192
     22 C          19.1533   37.9269    9.6624 C.3     1  UNL1        0.0728
     23 N          17.7538   38.3034    9.4906 N.3     1  UNL1       -0.2626
     24 C          17.5700   39.5287   10.2713 C.3     1  UNL1        0.0995
     25 C          16.9603   40.5945    9.4263 C.ar    1  UNL1       -0.0061
     26 C          17.7615   41.5756    8.8316 C.ar    1  UNL1       -0.0016
     27 C          17.1811   42.5616    8.0288 C.ar    1  UNL1        0.0144
     28 C          15.7988   42.5736    7.8101 C.ar    1  UNL1        0.0503
     29 C          15.0011   41.5832    8.4032 C.ar    1  UNL1        0.0144
     30 C          15.5803   40.5963    9.2060 C.ar    1  UNL1       -0.0016
     31 C          15.9646   44.5599    6.1982 C.2     1  UNL1        0.2266
     32 C          15.2135   45.5690    5.4079 C.3     1  UNL1        0.0949
     33 N          15.2409   43.6009    6.9792 N.am    1  UNL1       -0.2839
     34 O          17.2235   44.5657    6.1697 O.2     1  UNL1       -0.2748
     35 H          14.2585   43.6526    6.9415 H       1  UNL1        0.1549
@<TRIPOS>BOND
     1    12    17    1
     2    13    17    1
     3    13    14    1
     4    14    18    1
     5    15    18    1
     6    15    16    1
     7    16    17    1
     8     6    11   ar
     9     7     8   ar
    10     9    10   ar
    11     9     1    1
    12     1     4   ar
    13     2     5   ar
    14    19     2    1
    15    19    20    1
    16    19    23    1
    17    20    21    1
    18    21    22    1
    19    22    23    1
    20    24    23    1
    21    24    25    1
    22    26    27   ar
    23    28    33    1
    24    28    29   ar
    25    32    31    1
    26    30    25   ar
    27    18     6    1
    28     3     5   ar
    29    33    31   am
    30     6     7   ar
    31     8     9   ar
    32    10    11   ar
    33     1     3   ar
    34     2     4   ar
    35    25    26   ar
    36    27    28   ar
    37    31    34    2
    38    29    30   ar
    39    33    35    1
@<TRIPOS>MOLECULE
MolPort-019-932-453 49155154 CSSS00159283058 MCULE-2916528771 PubChem-51136863 ZINC000049155154
 35 39 0 0 0
SMALL
GASTEIGER

@<TRIPOS>ATOM
      1 C          10.8430   41.9923    9.9817 C.ar    1  UNL1        0.2048
      2 C           8.8052   42.4359    9.9621 C.ar    1  UNL1        0.2511
      3 N          10.7249   43.2984   10.2954 N.ar    1  UNL1       -0.0559
      4 N           9.6482   41.4038    9.7595 N.ar    1  UNL1       -0.1896
      5 O           9.4490   43.5336   10.2702 O.2     1  UNL1       -0.3356
      6 C          14.5612   39.9355    9.6941 C.ar    1  UNL1        0.1318
      7 C          14.2121   40.8735    8.7123 C.ar    1  UNL1        0.0344
      8 C          12.9949   41.5484    8.8061 C.ar    1  UNL1        0.0076
      9 C          12.1314   41.2913    9.8750 C.ar    1  UNL1        0.0583
     10 C          12.5124   40.3491   10.8367 C.ar    1  UNL1        0.1034
     11 N          13.7015   39.6990   10.7259 N.ar    1  UNL1       -0.2291
     12 C          18.5764   36.7840   11.4737 C.3     1  UNL1        0.0897
     13 C          16.6021   37.0176   10.2428 C.3     1  UNL1        0.0939
     14 C          15.8512   37.8312    9.1932 C.3     1  UNL1        0.1095
     15 C          17.0674   39.8491   10.0257 C.3     1  UNL1        0.1095
     16 C          17.7729   38.9353   11.0267 C.3     1  UNL1        0.0939
     17 N          17.9288   37.5952   10.4594 N.3     1  UNL1       -0.2686
     18 N          15.8089   39.2269    9.6203 N.pl3   1  UNL1       -0.2904
     19 C           7.3125   42.3575    9.8149 C.3     1  UNL1        0.1378
     20 C           6.8225   41.0624    9.2154 C.3     1  UNL1        0.0270
     21 C           5.4609   41.4217    8.6741 C.3     1  UNL1        0.0192
     22 C           5.4091   42.9452    8.6495 C.3     1  UNL1        0.0728
     23 N           6.7045   43.4680    9.0721 N.3     1  UNL1       -0.2626
     24 C           7.4401   43.7592    7.8397 C.3     1  UNL1        0.0995
     25 C           7.8347   42.4923    7.1606 C.ar    1  UNL1       -0.0061
     26 C           6.8812   41.7188    6.4893 C.ar    1  UNL1       -0.0016
     27 C           7.2648   40.5404    5.8430 C.ar    1  UNL1        0.0144
     28 C           8.6020   40.1275    5.8581 C.ar    1  UNL1        0.0503
     29 C           9.5551   40.9107    6.5268 C.ar    1  UNL1        0.0144
     30 C           9.1729   42.0897    7.1732 C.ar    1  UNL1       -0.0016
     31 C           9.3189   38.7732    3.8030 C.2     1  UNL1        0.2266
     32 C           9.6390   37.4244    3.2689 C.3     1  UNL1        0.0949
     33 N           8.9565   38.9131    5.1823 N.am    1  UNL1       -0.2839
     34 O           9.3699   39.7695    3.0347 O.2     1  UNL1       -0.2748
     35 H           8.9502   38.0900    5.7223 H       1  UNL1        0.1549
@<TRIPOS>BOND
     1    12    17    1
     2    13    17    1
     3    13    14    1
     4    14    18    1
     5    15    18    1
     6    15    16    1
     7    16    17    1
     8     6    11   ar
     9     7     8   ar
    10     9    10   ar
    11     9     1    1
    12     1     4   ar
    13     2     5   ar
    14    19     2    1
    15    19    20    1
    16    19    23    1
    17    20    21    1
    18    21    22    1
    19    22    23    1
    20    24    23    1
    21    24    25    1
    22    26    27   ar
    23    28    33    1
    24    28    29   ar
    25    32    31    1
    26    30    25   ar
    27    18     6    1
    28     3     5   ar
    29    33    31   am
    30     6     7   ar
    31     8     9   ar
    32    10    11   ar
    33     1     3   ar
    34     2     4   ar
    35    25    26   ar
    36    27    28   ar
    37    31    34    2
    38    29    30   ar
    39    33    35    1
