@<TRIPOS>MOLECULE
MolPort-047-459-720 219860716 MCULE-2419899372 MCULE-3818994584 PubChem-159302235 PubChem-159329173 PubChem-161182785 PubChem-165095731 PubChem-86683701
 36 40 0 0 0
SMALL
GASTEIGER

@<TRIPOS>ATOM
      1 N          12.3871   42.1607    6.1390 N.pl3   1  UNL1        0.0000
      2 H          12.3711   42.1464    5.1547 H       1  UNL1        0.0000
      3 O          14.4632   43.9397    5.4799 O.2     1  UNL1        0.0000
      4 C          15.2000   41.2253    8.3827 C.ar    1  UNL1        0.0000
      5 C          16.1584   42.1676    8.0063 C.ar    1  UNL1        0.0000
      6 C          14.6721   43.1139    6.4109 C.ar    1  UNL1        0.0000
      7 C          13.6678   42.1953    6.7821 C.ar    1  UNL1        0.0000
      8 C          13.9538   41.2405    7.7587 C.ar    1  UNL1        0.0000
      9 C          16.9361   44.0274    6.6812 C.3     1  UNL1        0.0000
     10 N          15.8867   43.0853    7.0403 N.ar    1  UNL1        0.0000
     11 B          15.5258   40.1658    9.4892 B       1  UNL1        0.0000
     12 O          14.7380   40.1678   10.7127 O.3     1  UNL1        0.0000
     13 O          15.9050   38.8240    9.0688 O.3     1  UNL1        0.0000
     14 C          14.1572   38.8887   10.6957 C.3     1  UNL1        0.0000
     15 C          14.7824   38.0945    9.4816 C.3     1  UNL1        0.0000
     16 C          13.8296   37.9440    8.2892 C.3     1  UNL1        0.0000
     17 C          15.2336   36.6835    9.8457 C.3     1  UNL1        0.0000
     18 C          14.4610   38.2410   12.0453 C.3     1  UNL1        0.0000
     19 C          12.6405   39.0364   10.6106 C.3     1  UNL1        0.0000
     20 C          11.1317   42.1454    6.8218 C.ar    1  UNL1        0.0000
     21 C           9.8755   42.4419    8.8186 C.ar    1  UNL1        0.0000
     22 C           8.6930   42.0376    8.1784 C.ar    1  UNL1        0.0000
     23 C           8.7695   41.6823    6.8227 C.ar    1  UNL1        0.0000
     24 C           9.9868   41.7274    6.1439 C.ar    1  UNL1        0.0000
     25 N          11.0515   42.4842    8.1382 N.ar    1  UNL1        0.0000
     26 C           6.2107   42.3521    8.1459 C.3     1  UNL1        0.0000
     27 C           4.9468   42.1721    8.9719 C.3     1  UNL1        0.0000
     28 C           5.9795   41.2449   10.8121 C.3     1  UNL1        0.0000
     29 C           7.3957   41.4828   10.2766 C.3     1  UNL1        0.0000
     30 C           8.1029   42.4357   11.2254 C.3     1  UNL1        0.0000
     31 N           7.4340   42.0064    8.8922 N.pl3   1  UNL1        0.0000
     32 N           5.0491   40.9377    9.7333 N.3     1  UNL1        0.0000
     33 O           2.4439   42.3348   10.5401 O.3     1  UNL1        0.0000
     34 C           3.7459   40.6793   10.3430 C.3     1  UNL1        0.0000
     35 C           3.4181   41.7469   11.3584 C.3     1  UNL1        0.0000
     36 C           2.6638   41.3671    9.5487 C.3     1  UNL1        0.0000
@<TRIPOS>BOND
     1    11    12    1
     2    11     4    1
     3    11    13    1
     4    14    12    1
     5    14    15    1
     6    14    18    1
     7    14    19    1
     8    15    13    1
     9    15    16    1
    10    15    17    1
    11     5    10   ar
    12     6     7   ar
    13     7     1    1
    14     8     4   ar
    15    21    25   ar
    16    22    23   ar
    17    22    31    1
    18    24    20   ar
    19    26    31    1
    20    26    27    1
    21    27    32    1
    22    28    32    1
    23    28    29    1
    24    29    30    1
    25    29    31    1
    26    34    32    1
    27    34    35    1
    28    35    33    1
    29    36    33    1
    30    36    34    1
    31     9    10    1
    32    10     6   ar
    33     1    20    1
    34     4     5   ar
    35     6     3    2
    36     7     8   ar
    37    20    25   ar
    38    21    22   ar
    39    23    24   ar
    40     1     2    1
@<TRIPOS>MOLECULE
MolPort-047-459-720 219860716 MCULE-2419899372 MCULE-3818994584 PubChem-159302235 PubChem-159329173 PubChem-161182785 PubChem-165095731 PubChem-86683701
 36 40 0 0 0
SMALL
GASTEIGER

@<TRIPOS>ATOM
      1 N          12.5338   42.0508    5.9444 N.pl3   1  UNL1        0.0000
      2 H          12.6127   42.0324    4.9632 H       1  UNL1        0.0000
      3 O          14.5618   43.9547    5.5295 O.2     1  UNL1        0.0000
      4 C          15.1717   41.1973    8.4212 C.ar    1  UNL1        0.0000
      5 C          16.1081   42.1991    8.1608 C.ar    1  UNL1        0.0000
      6 C          14.7277   43.1135    6.4555 C.ar    1  UNL1        0.0000
      7 C          13.7450   42.1331    6.7068 C.ar    1  UNL1        0.0000
      8 C          13.9903   41.1659    7.6823 C.ar    1  UNL1        0.0000
      9 C          16.9031   44.1357    6.9618 C.3     1  UNL1        0.0000
     10 N          15.8779   43.1297    7.1964 N.ar    1  UNL1        0.0000
     11 B          15.4504   40.1238    9.5271 B       1  UNL1        0.0000
     12 O          14.6371   40.1359   10.7338 O.3     1  UNL1        0.0000
     13 O          15.8082   38.7766    9.1058 O.3     1  UNL1        0.0000
     14 C          14.0282   38.8703   10.6960 C.3     1  UNL1        0.0000
     15 C          14.6611   38.0699    9.4899 C.3     1  UNL1        0.0000
     16 C          13.7306   37.9483    8.2768 C.3     1  UNL1        0.0000
     17 C          15.0729   36.6469    9.8540 C.3     1  UNL1        0.0000
     18 C          14.2889   38.2075   12.0473 C.3     1  UNL1        0.0000
     19 C          12.5174   39.0527   10.5800 C.3     1  UNL1        0.0000
     20 C          11.2200   41.9935    6.5041 C.ar    1  UNL1        0.0000
     21 C           8.8659   41.8388    6.2086 C.ar    1  UNL1        0.0000
     22 C           8.6473   41.9632    7.5899 C.ar    1  UNL1        0.0000
     23 C           9.7689   42.1075    8.4214 C.ar    1  UNL1        0.0000
     24 C          11.0547   42.1308    7.8822 C.ar    1  UNL1        0.0000
     25 N          10.1275   41.8587    5.7027 N.ar    1  UNL1        0.0000
     26 C           6.4225   40.8247    7.7166 C.3     1  UNL1        0.0000
     27 C           5.0878   40.8316    8.4450 C.3     1  UNL1        0.0000
     28 C           5.5959   42.5588    9.8839 C.3     1  UNL1        0.0000
     29 C           6.9306   42.8816    9.2034 C.3     1  UNL1        0.0000
     30 C           6.8451   44.2927    8.6466 C.3     1  UNL1        0.0000
     31 N           7.3076   41.9258    8.1373 N.pl3   1  UNL1        0.0000
     32 N           5.3151   41.1292    9.8498 N.3     1  UNL1        0.0000
     33 O           2.5590   42.3885   10.3061 O.3     1  UNL1        0.0000
     34 C           4.0561   40.9160   10.5613 C.3     1  UNL1        0.0000
     35 C           3.6015   42.1943   11.2226 C.3     1  UNL1        0.0000
     36 C           2.8943   41.1992    9.6421 C.3     1  UNL1        0.0000
@<TRIPOS>BOND
     1    11    12    1
     2    11     4    1
     3    11    13    1
     4    14    12    1
     5    14    15    1
     6    14    18    1
     7    14    19    1
     8    15    13    1
     9    15    16    1
    10    15    17    1
    11     5    10   ar
    12     6     7   ar
    13     7     1    1
    14     8     4   ar
    15    21    25   ar
    16    22    23   ar
    17    22    31    1
    18    24    20   ar
    19    26    31    1
    20    26    27    1
    21    27    32    1
    22    28    32    1
    23    28    29    1
    24    29    30    1
    25    29    31    1
    26    34    32    1
    27    34    35    1
    28    35    33    1
    29    36    33    1
    30    36    34    1
    31     9    10    1
    32    10     6   ar
    33     1    20    1
    34     4     5   ar
    35     6     3    2
    36     7     8   ar
    37    20    25   ar
    38    21    22   ar
    39    23    24   ar
    40     1     2    1
@<TRIPOS>MOLECULE
MolPort-047-459-720 219860716 MCULE-2419899372 MCULE-3818994584 PubChem-159302235 PubChem-159329173 PubChem-161182785 PubChem-165095731 PubChem-86683701
 36 40 0 0 0
SMALL
GASTEIGER

@<TRIPOS>ATOM
      1 N          13.0827   42.5048    6.4772 N.pl3   1  UNL1        0.0000
      2 H          13.1112   42.8059    5.5403 H       1  UNL1        0.0000
      3 O          15.3166   44.1764    6.1227 O.2     1  UNL1        0.0000
      4 C          15.7102   41.0754    8.6851 C.ar    1  UNL1        0.0000
      5 C          16.7540   41.9755    8.4652 C.ar    1  UNL1        0.0000
      6 C          15.4189   43.2283    6.9493 C.ar    1  UNL1        0.0000
      7 C          14.3316   42.3558    7.1653 C.ar    1  UNL1        0.0000
      8 C          14.4987   41.2684    8.0235 C.ar    1  UNL1        0.0000
      9 C          17.7312   43.9145    7.4138 C.3     1  UNL1        0.0000
     10 N          16.5976   43.0239    7.6134 N.ar    1  UNL1        0.0000
     11 B          15.9032   39.8651    9.6604 B       1  UNL1        0.0000
     12 O          15.1740   39.8588   10.9197 O.3     1  UNL1        0.0000
     13 O          16.0442   38.5336    9.0876 O.3     1  UNL1        0.0000
     14 C          14.3939   38.6957   10.8070 C.3     1  UNL1        0.0000
     15 C          14.8353   37.9487    9.4868 C.3     1  UNL1        0.0000
     16 C          13.8253   38.0784    8.3399 C.3     1  UNL1        0.0000
     17 C          15.0664   36.4536    9.6824 C.3     1  UNL1        0.0000
     18 C          14.6411   37.8671   12.0661 C.3     1  UNL1        0.0000
     19 C          12.9189   39.0874   10.8211 C.3     1  UNL1        0.0000
     20 C          11.7994   42.2482    7.0515 C.ar    1  UNL1        0.0000
     21 C           9.5181   41.6315    6.7906 C.ar    1  UNL1        0.0000
     22 C           9.2710   41.8251    8.1592 C.ar    1  UNL1        0.0000
     23 C          10.3403   42.2444    8.9660 C.ar    1  UNL1        0.0000
     24 C          11.6024   42.4641    8.4153 C.ar    1  UNL1        0.0000
     25 N          10.7568   41.8461    6.2736 N.ar    1  UNL1        0.0000
     26 C           7.8198   41.6143   10.1869 C.3     1  UNL1        0.0000
     27 C           6.3784   41.4588   10.6452 C.3     1  UNL1        0.0000
     28 C           5.4403   41.4955    8.5402 C.3     1  UNL1        0.0000
     29 C           6.7909   41.4720    7.8161 C.3     1  UNL1        0.0000
     30 C           6.8662   40.1904    7.0035 C.3     1  UNL1        0.0000
     31 N           7.9586   41.5821    8.7197 N.pl3   1  UNL1        0.0000
     32 N           5.5179   42.2525    9.7830 N.3     1  UNL1        0.0000
     33 O           2.6203   41.4447    9.1985 O.3     1  UNL1        0.0000
     34 C           4.1799   42.2605   10.3719 C.3     1  UNL1        0.0000
     35 C           3.1617   42.7273    9.3603 C.3     1  UNL1        0.0000
     36 C           3.5139   40.9259   10.1471 C.3     1  UNL1        0.0000
@<TRIPOS>BOND
     1    11    12    1
     2    11     4    1
     3    11    13    1
     4    14    12    1
     5    14    15    1
     6    14    18    1
     7    14    19    1
     8    15    13    1
     9    15    16    1
    10    15    17    1
    11     5    10   ar
    12     6     7   ar
    13     7     1    1
    14     8     4   ar
    15    21    25   ar
    16    22    23   ar
    17    22    31    1
    18    24    20   ar
    19    26    31    1
    20    26    27    1
    21    27    32    1
    22    28    32    1
    23    28    29    1
    24    29    30    1
    25    29    31    1
    26    34    32    1
    27    34    35    1
    28    35    33    1
    29    36    33    1
    30    36    34    1
    31     9    10    1
    32    10     6   ar
    33     1    20    1
    34     4     5   ar
    35     6     3    2
    36     7     8   ar
    37    20    25   ar
    38    21    22   ar
    39    23    24   ar
    40     1     2    1
@<TRIPOS>MOLECULE
MolPort-047-459-720 219860716 MCULE-2419899372 MCULE-3818994584 PubChem-159302235 PubChem-159329173 PubChem-161182785 PubChem-165095731 PubChem-86683701
 36 40 0 0 0
SMALL
GASTEIGER

@<TRIPOS>ATOM
      1 N          12.6219   39.7053   11.4855 N.pl3   1  UNL1        0.0000
      2 H          12.5807   39.1576   12.3026 H       1  UNL1        0.0000
      3 O          14.9093   38.2146   12.1600 O.2     1  UNL1        0.0000
      4 C          15.2428   40.8410    9.1059 C.ar    1  UNL1        0.0000
      5 C          16.3149   40.0366    9.4951 C.ar    1  UNL1        0.0000
      6 C          14.9942   39.0094   11.1835 C.ar    1  UNL1        0.0000
      7 C          13.8796   39.7854   10.8022 C.ar    1  UNL1        0.0000
      8 C          14.0247   40.7146    9.7714 C.ar    1  UNL1        0.0000
      9 C          17.3412   38.3505   10.8820 C.3     1  UNL1        0.0000
     10 N          16.1793   39.1452   10.5130 N.ar    1  UNL1        0.0000
     11 B          15.4117   41.8721    7.9390 B       1  UNL1        0.0000
     12 O          15.2812   43.2908    8.2353 O.3     1  UNL1        0.0000
     13 O          16.4170   41.6022    6.9205 O.3     1  UNL1        0.0000
     14 C          16.5447   43.7884    7.8746 C.3     1  UNL1        0.0000
     15 C          17.3511   42.6072    7.2034 C.3     1  UNL1        0.0000
     16 C          18.4456   42.0205    8.1035 C.3     1  UNL1        0.0000
     17 C          18.0393   43.0040    5.9011 C.3     1  UNL1        0.0000
     18 C          16.3096   44.9597    6.9229 C.3     1  UNL1        0.0000
     19 C          17.2228   44.3603    9.1165 C.3     1  UNL1        0.0000
     20 C          11.4234   40.3623   11.0677 C.ar    1  UNL1        0.0000
     21 C           9.5680   41.7634   11.5654 C.ar    1  UNL1        0.0000
     22 C           9.0382   41.5813   10.2779 C.ar    1  UNL1        0.0000
     23 C           9.7457   40.7586    9.3876 C.ar    1  UNL1        0.0000
     24 C          10.9330   40.1420    9.7807 C.ar    1  UNL1        0.0000
     25 N          10.7297   41.1577   11.9280 N.ar    1  UNL1        0.0000
     26 C           7.9086   43.5885    9.2995 C.3     1  UNL1        0.0000
     27 C           6.5683   44.1209    8.8178 C.3     1  UNL1        0.0000
     28 C           5.3743   42.1895    9.2131 C.3     1  UNL1        0.0000
     29 C           6.5377   41.4812    9.9156 C.3     1  UNL1        0.0000
     30 C           6.1230   41.2069   11.3513 C.3     1  UNL1        0.0000
     31 N           7.8105   42.2368    9.8793 N.pl3   1  UNL1        0.0000
     32 N           5.8494   43.0540    8.1404 N.3     1  UNL1        0.0000
     33 O           3.6843   45.1802    8.5665 O.3     1  UNL1        0.0000
     34 C           4.6731   43.6424    7.5025 C.3     1  UNL1        0.0000
     35 C           3.5495   43.7867    8.4999 C.3     1  UNL1        0.0000
     36 C           4.7227   45.1450    7.6242 C.3     1  UNL1        0.0000
@<TRIPOS>BOND
     1    11    12    1
     2    11     4    1
     3    11    13    1
     4    14    12    1
     5    14    15    1
     6    14    18    1
     7    14    19    1
     8    15    13    1
     9    15    16    1
    10    15    17    1
    11     5    10   ar
    12     6     7   ar
    13     7     1    1
    14     8     4   ar
    15    21    25   ar
    16    22    23   ar
    17    22    31    1
    18    24    20   ar
    19    26    31    1
    20    26    27    1
    21    27    32    1
    22    28    32    1
    23    28    29    1
    24    29    30    1
    25    29    31    1
    26    34    32    1
    27    34    35    1
    28    35    33    1
    29    36    33    1
    30    36    34    1
    31     9    10    1
    32    10     6   ar
    33     1    20    1
    34     4     5   ar
    35     6     3    2
    36     7     8   ar
    37    20    25   ar
    38    21    22   ar
    39    23    24   ar
    40     1     2    1
@<TRIPOS>MOLECULE
MolPort-047-459-720 219860716 MCULE-2419899372 MCULE-3818994584 PubChem-159302235 PubChem-159329173 PubChem-161182785 PubChem-165095731 PubChem-86683701
 36 40 0 0 0
SMALL
GASTEIGER

@<TRIPOS>ATOM
      1 N           4.9748   40.7528    9.9801 N.pl3   1  UNL1        0.0000
      2 H           4.9196   39.8052    9.7190 H       1  UNL1        0.0000
      3 O           4.8185   42.6249    7.8871 O.2     1  UNL1        0.0000
      4 C           8.4555   41.9783    9.5277 C.ar    1  UNL1        0.0000
      5 C           8.2735   42.9088    8.5034 C.ar    1  UNL1        0.0000
      6 C           5.9434   42.4448    8.4300 C.ar    1  UNL1        0.0000
      7 C           6.0819   41.5155    9.4823 C.ar    1  UNL1        0.0000
      8 C           7.3516   41.2770   10.0096 C.ar    1  UNL1        0.0000
      9 C           6.9211   44.0962    6.8969 C.3     1  UNL1        0.0000
     10 N           7.0393   43.1266    7.9757 N.ar    1  UNL1        0.0000
     11 B           9.8826   41.7269   10.1221 B       1  UNL1        0.0000
     12 O          10.1800   40.4247   10.6993 O.3     1  UNL1        0.0000
     13 O          11.0275   42.3113    9.4376 O.3     1  UNL1        0.0000
     14 C          11.2404   39.9763    9.8940 C.3     1  UNL1        0.0000
     15 C          11.6422   41.1601    8.9281 C.3     1  UNL1        0.0000
     16 C          11.1791   40.9566    7.4802 C.3     1  UNL1        0.0000
     17 C          13.1460   41.4075    8.8624 C.3     1  UNL1        0.0000
     18 C          12.3741   39.5683   10.8328 C.3     1  UNL1        0.0000
     19 C          10.8019   38.7127    9.1591 C.3     1  UNL1        0.0000
     20 C           3.9454   41.2672   10.8276 C.ar    1  UNL1        0.0000
     21 C           2.4079   42.9962   11.3751 C.ar    1  UNL1        0.0000
     22 C           1.9914   42.3112   12.5278 C.ar    1  UNL1        0.0000
     23 C           2.5916   41.0739   12.8086 C.ar    1  UNL1        0.0000
     24 C           3.5731   40.5529   11.9662 C.ar    1  UNL1        0.0000
     25 N           3.3626   42.4692   10.5636 N.ar    1  UNL1        0.0000
     26 C           1.3033   44.0382   14.2029 C.3     1  UNL1        0.0000
     27 C           0.1115   44.5850   14.9728 C.3     1  UNL1        0.0000
     28 C          -1.4549   43.1684   14.0498 C.3     1  UNL1        0.0000
     29 C          -0.4160   42.3265   13.3009 C.3     1  UNL1        0.0000
     30 C          -0.4752   40.9106   13.8488 C.3     1  UNL1        0.0000
     31 N           0.9631   42.8584   13.3874 N.pl3   1  UNL1        0.0000
     32 N          -1.0586   44.5695   14.1100 N.3     1  UNL1        0.0000
     33 O          -1.8682   45.6411   16.8644 O.3     1  UNL1        0.0000
     34 C          -2.1277   45.2951   14.7937 C.3     1  UNL1        0.0000
     35 C          -2.4645   44.6259   16.1040 C.3     1  UNL1        0.0000
     36 C          -1.5354   46.3465   15.6985 C.3     1  UNL1        0.0000
@<TRIPOS>BOND
     1    11    12    1
     2    11     4    1
     3    11    13    1
     4    14    12    1
     5    14    15    1
     6    14    18    1
     7    14    19    1
     8    15    13    1
     9    15    16    1
    10    15    17    1
    11     5    10   ar
    12     6     7   ar
    13     7     1    1
    14     8     4   ar
    15    21    25   ar
    16    22    23   ar
    17    22    31    1
    18    24    20   ar
    19    26    31    1
    20    26    27    1
    21    27    32    1
    22    28    32    1
    23    28    29    1
    24    29    30    1
    25    29    31    1
    26    34    32    1
    27    34    35    1
    28    35    33    1
    29    36    33    1
    30    36    34    1
    31     9    10    1
    32    10     6   ar
    33     1    20    1
    34     4     5   ar
    35     6     3    2
    36     7     8   ar
    37    20    25   ar
    38    21    22   ar
    39    23    24   ar
    40     1     2    1
@<TRIPOS>MOLECULE
MolPort-047-459-720 219860716 MCULE-2419899372 MCULE-3818994584 PubChem-159302235 PubChem-159329173 PubChem-161182785 PubChem-165095731 PubChem-86683701
 36 40 0 0 0
SMALL
GASTEIGER

@<TRIPOS>ATOM
      1 N          13.5502   39.8281    9.9137 N.pl3   1  UNL1        0.0000
      2 H          13.4886   40.1086   10.8553 H       1  UNL1        0.0000
      3 O          14.8679   41.4591    8.0393 O.2     1  UNL1        0.0000
      4 C          10.8263   41.5058    8.0195 C.ar    1  UNL1        0.0000
      5 C          11.5679   42.2599    7.1087 C.ar    1  UNL1        0.0000
      6 C          13.6064   41.4391    8.0149 C.ar    1  UNL1        0.0000
      7 C          12.8922   40.6419    8.9338 C.ar    1  UNL1        0.0000
      8 C          11.4981   40.7009    8.9380 C.ar    1  UNL1        0.0000
      9 C          13.6408   43.0427    6.1546 C.3     1  UNL1        0.0000
     10 N          12.9271   42.2178    7.1179 N.ar    1  UNL1        0.0000
     11 B           9.2614   41.5688    8.0078 B       1  UNL1        0.0000
     12 O           8.5228   40.7835    8.9853 O.3     1  UNL1        0.0000
     13 O           8.6247   42.8461    7.7185 O.3     1  UNL1        0.0000
     14 C           7.8242   41.7732    9.6968 C.3     1  UNL1        0.0000
     15 C           8.0757   43.1533    8.9703 C.3     1  UNL1        0.0000
     16 C           9.0467   44.0745    9.7192 C.3     1  UNL1        0.0000
     17 C           6.8033   43.9656    8.7507 C.3     1  UNL1        0.0000
     18 C           6.3519   41.3667    9.7007 C.3     1  UNL1        0.0000
     19 C           8.2887   41.7566   11.1505 C.3     1  UNL1        0.0000
     20 C          14.2889   38.6396    9.6237 C.ar    1  UNL1        0.0000
     21 C          16.3047   37.3870    9.7682 C.ar    1  UNL1        0.0000
     22 C          15.7613   36.3530    8.9889 C.ar    1  UNL1        0.0000
     23 C          14.4433   36.5011    8.5294 C.ar    1  UNL1        0.0000
     24 C          13.7075   37.6448    8.8378 C.ar    1  UNL1        0.0000
     25 N          15.5695   38.4919   10.0623 N.ar    1  UNL1        0.0000
     26 C          15.8024   33.8982    8.5053 C.3     1  UNL1        0.0000
     27 C          16.7080   32.7531    8.0801 C.3     1  UNL1        0.0000
     28 C          18.6181   34.0201    7.8383 C.3     1  UNL1        0.0000
     29 C          17.9823   35.2907    8.4130 C.3     1  UNL1        0.0000
     30 C          18.7326   35.6589    9.6819 C.3     1  UNL1        0.0000
     31 N          16.5324   35.1660    8.6860 N.pl3   1  UNL1        0.0000
     32 N          17.6487   33.2370    7.0828 N.3     1  UNL1        0.0000
     33 O          17.7504   30.1783    7.2381 O.3     1  UNL1        0.0000
     34 C          18.3553   32.0799    6.5362 C.3     1  UNL1        0.0000
     35 C          18.7149   31.1132    7.6382 C.3     1  UNL1        0.0000
     36 C          17.3658   31.0021    6.1698 C.3     1  UNL1        0.0000
@<TRIPOS>BOND
     1    11    12    1
     2    11     4    1
     3    11    13    1
     4    14    12    1
     5    14    15    1
     6    14    18    1
     7    14    19    1
     8    15    13    1
     9    15    16    1
    10    15    17    1
    11     5    10   ar
    12     6     7   ar
    13     7     1    1
    14     8     4   ar
    15    21    25   ar
    16    22    23   ar
    17    22    31    1
    18    24    20   ar
    19    26    31    1
    20    26    27    1
    21    27    32    1
    22    28    32    1
    23    28    29    1
    24    29    30    1
    25    29    31    1
    26    34    32    1
    27    34    35    1
    28    35    33    1
    29    36    33    1
    30    36    34    1
    31     9    10    1
    32    10     6   ar
    33     1    20    1
    34     4     5   ar
    35     6     3    2
    36     7     8   ar
    37    20    25   ar
    38    21    22   ar
    39    23    24   ar
    40     1     2    1
@<TRIPOS>MOLECULE
MolPort-047-459-720 219860716 MCULE-2419899372 MCULE-3818994584 PubChem-159302235 PubChem-159329173 PubChem-161182785 PubChem-165095731 PubChem-86683701
 36 40 0 0 0
SMALL
GASTEIGER

@<TRIPOS>ATOM
      1 N          16.0801   36.7113    8.7308 N.pl3   1  UNL1        0.0000
      2 H          16.8037   37.1379    9.2443 H       1  UNL1        0.0000
      3 O          14.2072   35.1227   10.1014 O.2     1  UNL1        0.0000
      4 C          12.9630   38.7367    8.7870 C.ar    1  UNL1        0.0000
      5 C          12.1143   37.8897    9.5015 C.ar    1  UNL1        0.0000
      6 C          13.8380   36.2677    9.7208 C.ar    1  UNL1        0.0000
      7 C          14.7340   37.1067    9.0257 C.ar    1  UNL1        0.0000
      8 C          14.2753   38.3340    8.5456 C.ar    1  UNL1        0.0000
      9 C          11.6145   35.8412   10.6736 C.3     1  UNL1        0.0000
     10 N          12.5555   36.6849    9.9520 N.ar    1  UNL1        0.0000
     11 B          12.4426   40.1181    8.2634 B       1  UNL1        0.0000
     12 O          11.2608   40.1439    7.4148 O.3     1  UNL1        0.0000
     13 O          12.5169   41.2663    9.1561 O.3     1  UNL1        0.0000
     14 C          10.3687   40.9243    8.1691 C.3     1  UNL1        0.0000
     15 C          11.1577   41.4797    9.4201 C.3     1  UNL1        0.0000
     16 C          10.7973   40.7781   10.7355 C.3     1  UNL1        0.0000
     17 C          10.9433   42.9706    9.6611 C.3     1  UNL1        0.0000
     18 C           9.8583   42.0336    7.2516 C.3     1  UNL1        0.0000
     19 C           9.1596   40.0707    8.5415 C.3     1  UNL1        0.0000
     20 C          16.4486   35.7432    7.7462 C.ar    1  UNL1        0.0000
     21 C          16.1665   34.8074    5.5788 C.ar    1  UNL1        0.0000
     22 C          17.1088   33.8023    5.8498 C.ar    1  UNL1        0.0000
     23 C          17.7163   33.7965    7.1152 C.ar    1  UNL1        0.0000
     24 C          17.3836   34.7594    8.0674 C.ar    1  UNL1        0.0000
     25 N          15.8595   35.7402    6.5186 N.ar    1  UNL1        0.0000
     26 C          17.0993   31.4101    5.1155 C.3     1  UNL1        0.0000
     27 C          17.4088   30.4920    3.9436 C.3     1  UNL1        0.0000
     28 C          18.0509   32.1561    2.4838 C.3     1  UNL1        0.0000
     29 C          17.9922   33.2621    3.5431 C.3     1  UNL1        0.0000
     30 C          19.3928   33.8264    3.7113 C.3     1  UNL1        0.0000
     31 N          17.4531   32.8158    4.8479 N.pl3   1  UNL1        0.0000
     32 N          17.0191   31.1516    2.7079 N.3     1  UNL1        0.0000
     33 O          17.1267   30.9340   -0.3467 O.3     1  UNL1        0.0000
     34 C          17.1224   30.1730    1.6270 C.3     1  UNL1        0.0000
     35 C          16.1311   30.4889    0.5336 C.3     1  UNL1        0.0000
     36 C          18.1207   30.6475    0.6006 C.3     1  UNL1        0.0000
@<TRIPOS>BOND
     1    11    12    1
     2    11     4    1
     3    11    13    1
     4    14    12    1
     5    14    15    1
     6    14    18    1
     7    14    19    1
     8    15    13    1
     9    15    16    1
    10    15    17    1
    11     5    10   ar
    12     6     7   ar
    13     7     1    1
    14     8     4   ar
    15    21    25   ar
    16    22    23   ar
    17    22    31    1
    18    24    20   ar
    19    26    31    1
    20    26    27    1
    21    27    32    1
    22    28    32    1
    23    28    29    1
    24    29    30    1
    25    29    31    1
    26    34    32    1
    27    34    35    1
    28    35    33    1
    29    36    33    1
    30    36    34    1
    31     9    10    1
    32    10     6   ar
    33     1    20    1
    34     4     5   ar
    35     6     3    2
    36     7     8   ar
    37    20    25   ar
    38    21    22   ar
    39    23    24   ar
    40     1     2    1
@<TRIPOS>MOLECULE
MolPort-047-459-720 219860716 MCULE-2419899372 MCULE-3818994584 PubChem-159302235 PubChem-159329173 PubChem-161182785 PubChem-165095731 PubChem-86683701
 36 40 0 0 0
SMALL
GASTEIGER

@<TRIPOS>ATOM
      1 N           8.7027   39.6682    7.8212 N.pl3   1  UNL1        0.0000
      2 H           8.3777   38.8845    7.3218 H       1  UNL1        0.0000
      3 O           8.5413   41.6967    5.8798 O.2     1  UNL1        0.0000
      4 C           6.2378   42.0990    9.1766 C.ar    1  UNL1        0.0000
      5 C           6.2050   43.0396    8.1459 C.ar    1  UNL1        0.0000
      6 C           7.7976   41.7956    6.8945 C.ar    1  UNL1        0.0000
      7 C           7.8387   40.8093    7.9022 C.ar    1  UNL1        0.0000
      8 C           7.0658   40.9850    9.0507 C.ar    1  UNL1        0.0000
      9 C           6.9069   43.9055    6.0064 C.3     1  UNL1        0.0000
     10 N           6.9733   42.8786    7.0356 N.ar    1  UNL1        0.0000
     11 B           5.3568   42.2983   10.4562 B       1  UNL1        0.0000
     12 O           4.0895   43.0023   10.3297 O.3     1  UNL1        0.0000
     13 O           5.3031   41.2182   11.4315 O.3     1  UNL1        0.0000
     14 C           3.1645   42.0282   10.7412 C.3     1  UNL1        0.0000
     15 C           3.9822   40.7821   11.2651 C.3     1  UNL1        0.0000
     16 C           3.9767   39.5920   10.2975 C.3     1  UNL1        0.0000
     17 C           3.4815   40.2449   12.6022 C.3     1  UNL1        0.0000
     18 C           2.2968   42.6643   11.8253 C.3     1  UNL1        0.0000
     19 C           2.2389   41.7017    9.5725 C.3     1  UNL1        0.0000
     20 C          10.0013   39.5849    8.4122 C.ar    1  UNL1        0.0000
     21 C          11.9176   40.6595    9.3210 C.ar    1  UNL1        0.0000
     22 C          12.5720   39.4291    9.4920 C.ar    1  UNL1        0.0000
     23 C          11.8935   38.2649    9.0991 C.ar    1  UNL1        0.0000
     24 C          10.6128   38.3392    8.5524 C.ar    1  UNL1        0.0000
     25 N          10.6670   40.7107    8.7909 N.ar    1  UNL1        0.0000
     26 C          14.0186   38.8893   11.4612 C.3     1  UNL1        0.0000
     27 C          15.4642   38.7600   11.9147 C.3     1  UNL1        0.0000
     28 C          16.4129   39.2524    9.8727 C.3     1  UNL1        0.0000
     29 C          15.0781   39.6211    9.2159 C.3     1  UNL1        0.0000
     30 C          15.1392   41.0861    8.8176 C.3     1  UNL1        0.0000
     31 N          13.8971   39.3656   10.0715 N.pl3   1  UNL1        0.0000
     32 N          16.2484   38.1745   10.8395 N.3     1  UNL1        0.0000
     33 O          19.1583   37.7560    9.9748 O.3     1  UNL1        0.0000
     34 C          17.5734   37.8616   11.3719 C.3     1  UNL1        0.0000
     35 C          18.2564   36.8268   10.5111 C.3     1  UNL1        0.0000
     36 C          18.6015   38.7784   10.7573 C.3     1  UNL1        0.0000
@<TRIPOS>BOND
     1    11    12    1
     2    11     4    1
     3    11    13    1
     4    14    12    1
     5    14    15    1
     6    14    18    1
     7    14    19    1
     8    15    13    1
     9    15    16    1
    10    15    17    1
    11     5    10   ar
    12     6     7   ar
    13     7     1    1
    14     8     4   ar
    15    21    25   ar
    16    22    23   ar
    17    22    31    1
    18    24    20   ar
    19    26    31    1
    20    26    27    1
    21    27    32    1
    22    28    32    1
    23    28    29    1
    24    29    30    1
    25    29    31    1
    26    34    32    1
    27    34    35    1
    28    35    33    1
    29    36    33    1
    30    36    34    1
    31     9    10    1
    32    10     6   ar
    33     1    20    1
    34     4     5   ar
    35     6     3    2
    36     7     8   ar
    37    20    25   ar
    38    21    22   ar
    39    23    24   ar
    40     1     2    1
@<TRIPOS>MOLECULE
MolPort-047-459-720 219860716 MCULE-2419899372 MCULE-3818994584 PubChem-159302235 PubChem-159329173 PubChem-161182785 PubChem-165095731 PubChem-86683701
 36 40 0 0 0
SMALL
GASTEIGER

@<TRIPOS>ATOM
      1 N          10.4882   42.2181    6.5445 N.pl3   1  UNL1        0.0000
      2 H          10.4974   42.4818    5.5960 H       1  UNL1        0.0000
      3 O          12.9336   43.3851    5.7908 O.2     1  UNL1        0.0000
      4 C          13.0182   40.6797    8.7926 C.ar    1  UNL1        0.0000
      5 C          14.1763   41.3327    8.3678 C.ar    1  UNL1        0.0000
      6 C          12.9456   42.5676    6.7521 C.ar    1  UNL1        0.0000
      7 C          11.7491   41.9489    7.1713 C.ar    1  UNL1        0.0000
      8 C          11.8038   40.9889    8.1825 C.ar    1  UNL1        0.0000
      9 C          15.3726   42.8841    6.9599 C.3     1  UNL1        0.0000
     10 N          14.1261   42.2537    7.3686 N.ar    1  UNL1        0.0000
     11 B          13.0877   39.6130    9.9374 B       1  UNL1        0.0000
     12 O          12.8319   38.2184    9.6099 O.3     1  UNL1        0.0000
     13 O          14.1077   39.7696   10.9648 O.3     1  UNL1        0.0000
     14 C          14.0436   37.6016    9.9638 C.3     1  UNL1        0.0000
     15 C          14.9493   38.6909   10.6632 C.3     1  UNL1        0.0000
     16 C          16.0968   39.1959    9.7798 C.3     1  UNL1        0.0000
     17 C          15.5922   38.2061   11.9589 C.3     1  UNL1        0.0000
     18 C          13.6992   36.4361   10.8891 C.3     1  UNL1        0.0000
     19 C          14.6741   36.9977    8.7121 C.3     1  UNL1        0.0000
     20 C           9.2189   42.1319    7.1955 C.ar    1  UNL1        0.0000
     21 C           7.8041   42.6947    9.0216 C.ar    1  UNL1        0.0000
     22 C           6.7663   41.8989    8.5106 C.ar    1  UNL1        0.0000
     23 C           6.9968   41.2129    7.3079 C.ar    1  UNL1        0.0000
     24 C           8.2228   41.3206    6.6523 C.ar    1  UNL1        0.0000
     25 N           8.9904   42.7908    8.3649 N.ar    1  UNL1        0.0000
     26 C           4.9730   40.4603    9.4986 C.3     1  UNL1        0.0000
     27 C           3.6922   40.4963   10.3173 C.3     1  UNL1        0.0000
     28 C           3.6657   42.7781   10.6416 C.3     1  UNL1        0.0000
     29 C           4.8496   43.0375    9.7036 C.3     1  UNL1        0.0000
     30 C           4.3560   43.8938    8.5497 C.3     1  UNL1        0.0000
     31 N           5.4945   41.8053    9.1957 N.pl3   1  UNL1        0.0000
     32 N           3.8168   41.5130   11.3491 N.3     1  UNL1        0.0000
     33 O           1.2352   42.9294   12.1973 O.3     1  UNL1        0.0000
     34 C           2.6731   41.3787   12.2495 C.3     1  UNL1        0.0000
     35 C           2.3946   42.6880   12.9468 C.3     1  UNL1        0.0000
     36 C           1.4002   41.7156   11.5138 C.3     1  UNL1        0.0000
@<TRIPOS>BOND
     1    11    12    1
     2    11     4    1
     3    11    13    1
     4    14    12    1
     5    14    15    1
     6    14    18    1
     7    14    19    1
     8    15    13    1
     9    15    16    1
    10    15    17    1
    11     5    10   ar
    12     6     7   ar
    13     7     1    1
    14     8     4   ar
    15    21    25   ar
    16    22    23   ar
    17    22    31    1
    18    24    20   ar
    19    26    31    1
    20    26    27    1
    21    27    32    1
    22    28    32    1
    23    28    29    1
    24    29    30    1
    25    29    31    1
    26    34    32    1
    27    34    35    1
    28    35    33    1
    29    36    33    1
    30    36    34    1
    31     9    10    1
    32    10     6   ar
    33     1    20    1
    34     4     5   ar
    35     6     3    2
    36     7     8   ar
    37    20    25   ar
    38    21    22   ar
    39    23    24   ar
    40     1     2    1
@<TRIPOS>MOLECULE
MolPort-047-459-720 219860716 MCULE-2419899372 MCULE-3818994584 PubChem-159302235 PubChem-159329173 PubChem-161182785 PubChem-165095731 PubChem-86683701
 36 40 0 0 0
SMALL
GASTEIGER

@<TRIPOS>ATOM
      1 N          13.6684   37.3369   11.1379 N.pl3   1  UNL1        0.0000
      2 H          13.4573   36.7411   11.8927 H       1  UNL1        0.0000
      3 O          16.0519   38.4814   12.0964 O.2     1  UNL1        0.0000
      4 C          16.2638   36.3634    8.6604 C.ar    1  UNL1        0.0000
      5 C          17.3983   36.9448    9.2288 C.ar    1  UNL1        0.0000
      6 C          16.1163   37.7871   11.0446 C.ar    1  UNL1        0.0000
      7 C          14.9518   37.1917   10.5159 C.ar    1  UNL1        0.0000
      8 C          15.0372   36.4974    9.3085 C.ar    1  UNL1        0.0000
      9 C          18.5282   38.2362   10.9245 C.3     1  UNL1        0.0000
     10 N          17.3115   37.6384   10.3952 N.ar    1  UNL1        0.0000
     11 B          16.3720   35.5750    7.3114 B       1  UNL1        0.0000
     12 O          17.5470   35.7756    6.4767 O.3     1  UNL1        0.0000
     13 O          15.8851   34.2030    7.2736 O.3     1  UNL1        0.0000
     14 C          18.1001   34.4851    6.4249 C.3     1  UNL1        0.0000
     15 C          17.0907   33.5021    7.1396 C.3     1  UNL1        0.0000
     16 C          17.5529   33.0506    8.5306 C.3     1  UNL1        0.0000
     17 C          16.8198   32.2271    6.3472 C.3     1  UNL1        0.0000
     18 C          18.3107   34.1471    4.9503 C.3     1  UNL1        0.0000
     19 C          19.4825   34.5143    7.0709 C.3     1  UNL1        0.0000
     20 C          12.6728   38.2829   10.7425 C.ar    1  UNL1        0.0000
     21 C          10.6652   38.7843    9.5715 C.ar    1  UNL1        0.0000
     22 C          10.7697   40.1453    9.9007 C.ar    1  UNL1        0.0000
     23 C          11.8703   40.5513   10.6713 C.ar    1  UNL1        0.0000
     24 C          12.8267   39.6256   11.0871 C.ar    1  UNL1        0.0000
     25 N          11.6053   37.8965    9.9907 N.ar    1  UNL1        0.0000
     26 C           9.8127   41.5665    8.0769 C.3     1  UNL1        0.0000
     27 C           8.6406   42.4665    7.7188 C.3     1  UNL1        0.0000
     28 C           7.5127   42.2152    9.7130 C.3     1  UNL1        0.0000
     29 C           8.6440   41.4272   10.3822 C.3     1  UNL1        0.0000
     30 C           9.1446   42.2373   11.5661 C.3     1  UNL1        0.0000
     31 N           9.7633   41.0935    9.4721 N.pl3   1  UNL1        0.0000
     32 N           7.4242   41.9118    8.2903 N.3     1  UNL1        0.0000
     33 O           6.0219   44.6285    8.4979 O.3     1  UNL1        0.0000
     34 C           6.2935   42.6671    7.7539 C.3     1  UNL1        0.0000
     35 C           5.5482   43.3622    8.8672 C.3     1  UNL1        0.0000
     36 C           6.7283   44.0725    7.4211 C.3     1  UNL1        0.0000
@<TRIPOS>BOND
     1    11    12    1
     2    11     4    1
     3    11    13    1
     4    14    12    1
     5    14    15    1
     6    14    18    1
     7    14    19    1
     8    15    13    1
     9    15    16    1
    10    15    17    1
    11     5    10   ar
    12     6     7   ar
    13     7     1    1
    14     8     4   ar
    15    21    25   ar
    16    22    23   ar
    17    22    31    1
    18    24    20   ar
    19    26    31    1
    20    26    27    1
    21    27    32    1
    22    28    32    1
    23    28    29    1
    24    29    30    1
    25    29    31    1
    26    34    32    1
    27    34    35    1
    28    35    33    1
    29    36    33    1
    30    36    34    1
    31     9    10    1
    32    10     6   ar
    33     1    20    1
    34     4     5   ar
    35     6     3    2
    36     7     8   ar
    37    20    25   ar
    38    21    22   ar
    39    23    24   ar
    40     1     2    1
