@<TRIPOS>MOLECULE
Molport-020-278-777 MCULE-4915832117 PubChem-110255647
 26 28 0 0 0
SMALL
GASTEIGER

@<TRIPOS>ATOM
      1 C           9.1519   41.1095   14.5216 C.3     1  UNL1        0.0737
      2 C           9.0691   41.2366   13.0435 C.ar    1  UNL1        0.1406
      3 C          10.0801   41.0140   10.9173 C.ar    1  UNL1        0.0644
      4 C           8.9129   41.4733   10.3073 C.ar    1  UNL1        0.0492
      5 C           7.8253   41.8108   11.1124 C.ar    1  UNL1        0.1358
      6 N          10.1367   40.9043   12.2726 N.ar    1  UNL1       -0.2348
      7 N           7.9255   41.6856   12.4639 N.ar    1  UNL1       -0.2159
      8 C          11.2559   40.6481   10.0741 C.3     1  UNL1        0.0603
      9 C          12.4525   40.2583   10.9479 C.3     1  UNL1        0.0094
     10 C          13.7337   39.9855   10.1426 C.3     1  UNL1        0.0219
     11 C          13.5750   40.2538    8.6455 C.3     1  UNL1        0.0935
     12 C          11.6237   41.7948    9.1296 C.3     1  UNL1        0.0993
     13 C          13.4656   42.5381    7.5949 C.2     1  UNL1        0.2559
     14 N          12.8871   41.5279    8.4355 N.am    1  UNL1       -0.2771
     15 O          12.8750   43.6388    7.4282 O.2     1  UNL1       -0.2721
     16 C          14.7509   42.2967    6.8749 C.3     1  UNL1        0.2272
     17 C          16.6388   42.4976    7.9969 C.3     1  UNL1        0.1748
     18 O          15.6988   43.2360    7.2798 O.3     1  UNL1       -0.3417
     19 N           6.6218   42.2836   10.4957 N.pl3   1  UNL1       -0.2820
     20 H           5.8023   42.2575   11.0407 H       1  UNL1        0.1551
     21 C           6.4971   42.7908    9.1617 C.ar    1  UNL1        0.1526
     22 C           5.9006   44.5195    7.6512 C.ar    1  UNL1        0.1210
     23 C           6.2790   43.7126    6.5773 C.ar    1  UNL1        0.1196
     24 C           6.8747   41.9860    8.0848 C.ar    1  UNL1        0.1332
     25 N           6.0177   44.0417    8.9181 N.ar    1  UNL1       -0.2258
     26 N           6.7578   42.4636    6.8174 N.ar    1  UNL1       -0.2378
@<TRIPOS>BOND
     1     1     2    1
     2     2     7   ar
     3     3     6   ar
     4     4     5   ar
     5     5    19    1
     6    22    25   ar
     7    23    26   ar
     8    24    21   ar
     9     8     3    1
    10     8     9    1
    11     9    10    1
    12    10    11    1
    13    11    14    1
    14    12    14    1
    15    12     8    1
    16    16    13    1
    17    16    18    1
    18    17    18    1
    19    19    21    1
    20    14    13   am
    21     2     6   ar
    22     3     4   ar
    23     5     7   ar
    24    21    25   ar
    25    22    23   ar
    26    24    26   ar
    27    13    15    2
    28    19    20    1
@<TRIPOS>MOLECULE
Molport-020-278-777 MCULE-4915832117 PubChem-110255647
 26 28 0 0 0
SMALL
GASTEIGER

@<TRIPOS>ATOM
      1 C          10.1351   42.8542   10.6618 C.3     1  UNL1        0.0737
      2 C          11.1032   42.0712    9.8509 C.ar    1  UNL1        0.1406
      3 C          12.3676   40.0992    9.5270 C.ar    1  UNL1        0.0644
      4 C          12.8959   40.6242    8.3477 C.ar    1  UNL1        0.0492
      5 C          12.4972   41.8985    7.9449 C.ar    1  UNL1        0.1358
      6 N          11.4821   40.8315   10.2561 N.ar    1  UNL1       -0.2348
      7 N          11.6092   42.5959    8.7046 N.ar    1  UNL1       -0.2159
      8 C          12.7815   38.7375    9.9763 C.3     1  UNL1        0.0603
      9 C          13.6947   38.8231   11.2034 C.3     1  UNL1        0.0094
     10 C          14.2541   37.4605   11.6448 C.3     1  UNL1        0.0219
     11 C          13.8620   36.3151   10.7106 C.3     1  UNL1        0.0935
     12 C          13.4688   37.9770    8.8398 C.3     1  UNL1        0.0993
     13 C          14.8435   35.9178    8.4275 C.2     1  UNL1        0.2559
     14 N          14.0505   36.7189    9.3171 N.am    1  UNL1       -0.2771
     15 O          15.0135   36.2774    7.2317 O.2     1  UNL1       -0.2721
     16 C          15.4494   34.6319    8.8836 C.3     1  UNL1        0.2272
     17 C          17.4063   33.6453    8.6373 C.3     1  UNL1        0.1748
     18 O          16.8127   34.8122    9.1158 O.3     1  UNL1       -0.3417
     19 N          13.0339   42.4468    6.7352 N.pl3   1  UNL1       -0.2820
     20 H          12.5155   42.2998    5.9112 H       1  UNL1        0.1551
     21 C          14.2531   43.1887    6.6100 C.ar    1  UNL1        0.1526
     22 C          16.5249   43.5510    7.1877 C.ar    1  UNL1        0.1210
     23 C          16.5681   44.6511    6.3301 C.ar    1  UNL1        0.1196
     24 C          14.2999   44.2901    5.7528 C.ar    1  UNL1        0.1332
     25 N          15.3701   42.8449    7.3088 N.ar    1  UNL1       -0.2258
     26 N          15.4549   44.9966    5.6313 N.ar    1  UNL1       -0.2378
@<TRIPOS>BOND
     1     1     2    1
     2     2     7   ar
     3     3     6   ar
     4     4     5   ar
     5     5    19    1
     6    22    25   ar
     7    23    26   ar
     8    24    21   ar
     9     8     3    1
    10     8     9    1
    11     9    10    1
    12    10    11    1
    13    11    14    1
    14    12    14    1
    15    12     8    1
    16    16    13    1
    17    16    18    1
    18    17    18    1
    19    19    21    1
    20    14    13   am
    21     2     6   ar
    22     3     4   ar
    23     5     7   ar
    24    21    25   ar
    25    22    23   ar
    26    24    26   ar
    27    13    15    2
    28    19    20    1
@<TRIPOS>MOLECULE
Molport-020-278-777 MCULE-4915832117 PubChem-110255647
 26 28 0 0 0
SMALL
GASTEIGER

@<TRIPOS>ATOM
      1 C          14.3945   39.1199   11.3543 C.3     1  UNL1        0.0737
      2 C          13.5602   39.9813   10.4770 C.ar    1  UNL1        0.1406
      3 C          11.5727   41.2126   10.1215 C.ar    1  UNL1        0.0644
      4 C          12.0177   41.5758    8.8505 C.ar    1  UNL1        0.0492
      5 C          13.2612   41.1143    8.4196 C.ar    1  UNL1        0.1358
      6 N          12.3511   40.4229   10.9105 N.ar    1  UNL1       -0.2348
      7 N          14.0070   40.3266    9.2414 N.ar    1  UNL1       -0.2159
      8 C          10.2446   41.6952   10.6017 C.3     1  UNL1        0.0603
      9 C           9.8931   41.0666   11.9540 C.3     1  UNL1        0.0094
     10 C           8.4830   41.4296   12.4483 C.3     1  UNL1        0.0219
     11 C           7.6866   42.2633   11.4437 C.3     1  UNL1        0.0935
     12 C           9.1551   41.4032    9.5674 C.3     1  UNL1        0.0993
     13 C           6.6567   41.3720    9.3274 C.2     1  UNL1        0.2559
     14 N           7.8217   41.6944   10.1025 N.am    1  UNL1       -0.2771
     15 O           6.7789   40.8699    8.1781 O.2     1  UNL1       -0.2721
     16 C           5.2854   41.6561    9.8448 C.3     1  UNL1        0.2272
     17 C           3.1163   41.4108    9.5315 C.3     1  UNL1        0.1748
     18 O           4.3517   40.8980    9.1389 O.3     1  UNL1       -0.3417
     19 N          13.7274   41.4816    7.1158 N.pl3   1  UNL1       -0.2820
     20 H          13.6101   40.8183    6.3978 H       1  UNL1        0.1551
     21 C          14.3481   42.7220    6.7571 C.ar    1  UNL1        0.1526
     22 C          16.1397   44.2667    6.9296 C.ar    1  UNL1        0.1210
     23 C          15.4931   45.1178    6.0322 C.ar    1  UNL1        0.1196
     24 C          13.7038   43.5760    5.8596 C.ar    1  UNL1        0.1332
     25 N          15.5539   43.0892    7.2720 N.ar    1  UNL1       -0.2258
     26 N          14.2894   44.7539    5.5168 N.ar    1  UNL1       -0.2378
@<TRIPOS>BOND
     1     1     2    1
     2     2     7   ar
     3     3     6   ar
     4     4     5   ar
     5     5    19    1
     6    22    25   ar
     7    23    26   ar
     8    24    21   ar
     9     8     3    1
    10     8     9    1
    11     9    10    1
    12    10    11    1
    13    11    14    1
    14    12    14    1
    15    12     8    1
    16    16    13    1
    17    16    18    1
    18    17    18    1
    19    19    21    1
    20    14    13   am
    21     2     6   ar
    22     3     4   ar
    23     5     7   ar
    24    21    25   ar
    25    22    23   ar
    26    24    26   ar
    27    13    15    2
    28    19    20    1
@<TRIPOS>MOLECULE
Molport-020-278-777 MCULE-4915832117 PubChem-110255647
 26 28 0 0 0
SMALL
GASTEIGER

@<TRIPOS>ATOM
      1 C          10.1368   40.1548    4.6653 C.3     1  UNL1        0.0737
      2 C          10.7182   40.7201    5.9103 C.ar    1  UNL1        0.1406
      3 C          10.4259   41.5374    8.1101 C.ar    1  UNL1        0.0644
      4 C          11.7977   41.7667    8.2139 C.ar    1  UNL1        0.0492
      5 C          12.6125   41.4549    7.1259 C.ar    1  UNL1        0.1358
      6 N           9.9119   41.0189    6.9616 N.ar    1  UNL1       -0.2348
      7 N          12.0564   40.9381    5.9965 N.ar    1  UNL1       -0.2159
      8 C           9.5359   41.8647    9.2626 C.3     1  UNL1        0.0603
      9 C           9.9932   41.1332   10.5287 C.3     1  UNL1        0.0094
     10 C           9.0478   41.3331   11.7248 C.3     1  UNL1        0.0219
     11 C           7.7963   42.1404   11.3774 C.3     1  UNL1        0.0935
     12 C           8.0794   41.5268    8.9362 C.3     1  UNL1        0.0993
     13 C           5.8439   41.2711   10.0486 C.2     1  UNL1        0.2559
     14 N           7.2242   41.6604   10.1194 N.am    1  UNL1       -0.2771
     15 O           5.3598   40.8458    8.9656 O.2     1  UNL1       -0.2721
     16 C           4.9476   41.3950   11.2360 C.3     1  UNL1        0.2272
     17 C           4.3997   42.9818    9.8059 C.3     1  UNL1        0.1748
     18 O           4.0101   42.4029   11.0127 O.3     1  UNL1       -0.3417
     19 N          14.0229   41.6867    7.2224 N.pl3   1  UNL1       -0.2820
     20 H          14.5638   40.9755    7.6356 H       1  UNL1        0.1551
     21 C          14.7213   42.8548    6.7748 C.ar    1  UNL1        0.1526
     22 C          16.5856   44.3178    6.8745 C.ar    1  UNL1        0.1210
     23 C          16.0176   45.1105    5.8761 C.ar    1  UNL1        0.1196
     24 C          14.1558   43.6503    5.7760 C.ar    1  UNL1        0.1332
     25 N          15.9259   43.2090    7.3014 N.ar    1  UNL1       -0.2258
     26 N          14.8153   44.7596    5.3486 N.ar    1  UNL1       -0.2378
@<TRIPOS>BOND
     1     1     2    1
     2     2     7   ar
     3     3     6   ar
     4     4     5   ar
     5     5    19    1
     6    22    25   ar
     7    23    26   ar
     8    24    21   ar
     9     8     3    1
    10     8     9    1
    11     9    10    1
    12    10    11    1
    13    11    14    1
    14    12    14    1
    15    12     8    1
    16    16    13    1
    17    16    18    1
    18    17    18    1
    19    19    21    1
    20    14    13   am
    21     2     6   ar
    22     3     4   ar
    23     5     7   ar
    24    21    25   ar
    25    22    23   ar
    26    24    26   ar
    27    13    15    2
    28    19    20    1
@<TRIPOS>MOLECULE
Molport-020-278-777 MCULE-4915832117 PubChem-110255647
 26 28 0 0 0
SMALL
GASTEIGER

@<TRIPOS>ATOM
      1 C           9.3209   38.5973    3.2681 C.3     1  UNL1        0.0737
      2 C           9.4860   39.5154    4.4246 C.ar    1  UNL1        0.1406
      3 C          10.8985   40.6227    5.9645 C.ar    1  UNL1        0.0644
      4 C           9.7885   41.2154    6.5661 C.ar    1  UNL1        0.0492
      5 C           8.5207   40.9291    6.0603 C.ar    1  UNL1        0.1358
      6 N          10.7271   39.7845    4.9061 N.ar    1  UNL1       -0.2348
      7 N           8.3953   40.0851    5.0001 N.ar    1  UNL1       -0.2159
      8 C          12.2642   40.9151    6.4907 C.3     1  UNL1        0.0603
      9 C          12.2728   40.8980    8.0226 C.3     1  UNL1        0.0094
     10 C          13.6238   41.3102    8.6305 C.3     1  UNL1        0.0219
     11 C          14.6497   41.7456    7.5834 C.3     1  UNL1        0.0935
     12 C          12.7740   42.2569    5.9596 C.3     1  UNL1        0.0993
     13 C          14.6016   43.9343    6.3422 C.2     1  UNL1        0.2559
     14 N          14.0253   42.6479    6.6157 N.am    1  UNL1       -0.2771
     15 O          14.0521   44.7129    5.5176 O.2     1  UNL1       -0.2721
     16 C          15.8747   44.3616    6.9945 C.3     1  UNL1        0.2272
     17 C          17.6207   43.8819    5.7356 C.3     1  UNL1        0.1748
     18 O          16.7298   44.9102    6.0392 O.3     1  UNL1       -0.3417
     19 N           7.3740   41.5327    6.6710 N.pl3   1  UNL1       -0.2820
     20 H           6.7478   42.0033    6.0747 H       1  UNL1        0.1551
     21 C           7.0516   41.5168    8.0669 C.ar    1  UNL1        0.1526
     22 C           7.6671   41.8186   10.3376 C.ar    1  UNL1        0.1210
     23 C           6.3757   41.4690   10.7347 C.ar    1  UNL1        0.1196
     24 C           5.7604   41.1673    8.4678 C.ar    1  UNL1        0.1332
     25 N           7.9764   41.8349    9.0143 N.ar    1  UNL1       -0.2258
     26 N           5.4506   41.1510    9.7913 N.ar    1  UNL1       -0.2378
@<TRIPOS>BOND
     1     1     2    1
     2     2     7   ar
     3     3     6   ar
     4     4     5   ar
     5     5    19    1
     6    22    25   ar
     7    23    26   ar
     8    24    21   ar
     9     8     3    1
    10     8     9    1
    11     9    10    1
    12    10    11    1
    13    11    14    1
    14    12    14    1
    15    12     8    1
    16    16    13    1
    17    16    18    1
    18    17    18    1
    19    19    21    1
    20    14    13   am
    21     2     6   ar
    22     3     4   ar
    23     5     7   ar
    24    21    25   ar
    25    22    23   ar
    26    24    26   ar
    27    13    15    2
    28    19    20    1
@<TRIPOS>MOLECULE
Molport-020-278-777 MCULE-4915832117 PubChem-110255647
 26 28 0 0 0
SMALL
GASTEIGER

@<TRIPOS>ATOM
      1 C           8.8104   41.1046   13.8903 C.3     1  UNL1        0.0737
      2 C           8.8890   41.3502   12.4270 C.ar    1  UNL1        0.1406
      3 C          10.1015   41.2276   10.4004 C.ar    1  UNL1        0.0644
      4 C           9.0315   41.8063    9.7180 C.ar    1  UNL1        0.0492
      5 C           7.8867   42.1498   10.4366 C.ar    1  UNL1        0.1358
      6 N          10.0107   41.0104   11.7408 N.ar    1  UNL1       -0.2348
      7 N           7.8387   41.9148   11.7762 N.ar    1  UNL1       -0.2159
      8 C          11.3363   40.8531    9.6504 C.3     1  UNL1        0.0603
      9 C          12.4514   40.4319   10.6128 C.3     1  UNL1        0.0094
     10 C          13.7896   40.1482    9.9106 C.3     1  UNL1        0.0219
     11 C          13.7577   40.4388    8.4096 C.3     1  UNL1        0.0935
     12 C          11.7978   42.0057    8.7556 C.3     1  UNL1        0.0993
     13 C          13.7700   42.7381    7.3866 C.2     1  UNL1        0.2559
     14 N          13.1092   41.7268    8.1627 N.am    1  UNL1       -0.2771
     15 O          13.2123   43.8506    7.1883 O.2     1  UNL1       -0.2721
     16 C          15.1058   42.4846    6.7701 C.3     1  UNL1        0.2272
     17 C          16.6753   43.9812    7.1707 C.3     1  UNL1        0.1748
     18 O          15.6360   43.6823    6.2911 O.3     1  UNL1       -0.3417
     19 N           6.7821   42.7448    9.7451 N.pl3   1  UNL1       -0.2820
     20 H           6.9743   43.5442    9.2036 H       1  UNL1        0.1551
     21 C           5.4246   42.2875    9.7665 C.ar    1  UNL1        0.1526
     22 C           3.8167   40.5936   10.1803 C.ar    1  UNL1        0.1210
     23 C           2.7985   41.4632    9.7870 C.ar    1  UNL1        0.1196
     24 C           4.4033   43.1550    9.3735 C.ar    1  UNL1        0.1332
     25 N           5.1056   41.0241   10.1614 N.ar    1  UNL1       -0.2258
     26 N           3.1139   42.7248    9.3923 N.ar    1  UNL1       -0.2378
@<TRIPOS>BOND
     1     1     2    1
     2     2     7   ar
     3     3     6   ar
     4     4     5   ar
     5     5    19    1
     6    22    25   ar
     7    23    26   ar
     8    24    21   ar
     9     8     3    1
    10     8     9    1
    11     9    10    1
    12    10    11    1
    13    11    14    1
    14    12    14    1
    15    12     8    1
    16    16    13    1
    17    16    18    1
    18    17    18    1
    19    19    21    1
    20    14    13   am
    21     2     6   ar
    22     3     4   ar
    23     5     7   ar
    24    21    25   ar
    25    22    23   ar
    26    24    26   ar
    27    13    15    2
    28    19    20    1
@<TRIPOS>MOLECULE
Molport-020-278-777 MCULE-4915832117 PubChem-110255647
 26 28 0 0 0
SMALL
GASTEIGER

@<TRIPOS>ATOM
      1 C          11.6712   35.3800   11.0219 C.3     1  UNL1        0.0737
      2 C          11.8973   36.6363   10.2615 C.ar    1  UNL1        0.1406
      3 C          13.3676   38.3290    9.5094 C.ar    1  UNL1        0.0644
      4 C          12.3125   38.9625    8.8530 C.ar    1  UNL1        0.0492
      5 C          11.0414   38.3932    8.9247 C.ar    1  UNL1        0.1358
      6 N          13.1409   37.1789   10.2008 N.ar    1  UNL1       -0.2348
      7 N          10.8597   37.2419    9.6273 N.ar    1  UNL1       -0.2159
      8 C          14.7357   38.9219    9.4459 C.3     1  UNL1        0.0603
      9 C          15.3430   39.0417   10.8474 C.3     1  UNL1        0.0094
     10 C          16.7045   39.7561   10.8641 C.3     1  UNL1        0.0219
     11 C          17.1260   40.2854    9.4927 C.3     1  UNL1        0.0935
     12 C          14.7045   40.2843    8.7493 C.3     1  UNL1        0.0993
     13 C          16.1400   42.3068    8.3634 C.2     1  UNL1        0.2559
     14 N          15.9999   40.9632    8.8500 N.am    1  UNL1       -0.2771
     15 O          15.1627   42.8904    7.8226 O.2     1  UNL1       -0.2721
     16 C          17.4458   43.0250    8.4518 C.3     1  UNL1        0.2272
     17 C          17.8835   43.8873    6.4698 C.3     1  UNL1        0.1748
     18 O          17.3769   44.2142    7.7266 O.3     1  UNL1       -0.3417
     19 N           9.9510   39.0360    8.2540 N.pl3   1  UNL1       -0.2820
     20 H           9.2038   39.3462    8.8150 H       1  UNL1        0.1551
     21 C           9.8440   39.2706    6.8447 C.ar    1  UNL1        0.1526
     22 C          10.8433   39.6440    4.7262 C.ar    1  UNL1        0.1210
     23 C           9.5781   39.7197    4.1421 C.ar    1  UNL1        0.1196
     24 C           8.5796   39.3470    6.2570 C.ar    1  UNL1        0.1332
     25 N          10.9485   39.4215    6.0628 N.ar    1  UNL1       -0.2258
     26 N           8.4739   39.5696    4.9201 N.ar    1  UNL1       -0.2378
@<TRIPOS>BOND
     1     1     2    1
     2     2     7   ar
     3     3     6   ar
     4     4     5   ar
     5     5    19    1
     6    22    25   ar
     7    23    26   ar
     8    24    21   ar
     9     8     3    1
    10     8     9    1
    11     9    10    1
    12    10    11    1
    13    11    14    1
    14    12    14    1
    15    12     8    1
    16    16    13    1
    17    16    18    1
    18    17    18    1
    19    19    21    1
    20    14    13   am
    21     2     6   ar
    22     3     4   ar
    23     5     7   ar
    24    21    25   ar
    25    22    23   ar
    26    24    26   ar
    27    13    15    2
    28    19    20    1
@<TRIPOS>MOLECULE
Molport-020-278-777 MCULE-4915832117 PubChem-110255647
 26 28 0 0 0
SMALL
GASTEIGER

@<TRIPOS>ATOM
      1 C           9.4869   39.1642    3.8868 C.3     1  UNL1        0.0737
      2 C           9.7394   40.0484    5.0538 C.ar    1  UNL1        0.1406
      3 C           8.9636   41.6717    6.5887 C.ar    1  UNL1        0.0644
      4 C          10.2100   41.6847    7.2145 C.ar    1  UNL1        0.0492
      5 C          11.2143   40.8512    6.7230 C.ar    1  UNL1        0.1358
      6 N           8.7514   40.8548    5.5211 N.ar    1  UNL1       -0.2348
      7 N          10.9587   40.0502    5.6529 N.ar    1  UNL1       -0.2159
      8 C           7.8751   42.5564    7.0985 C.3     1  UNL1        0.0603
      9 C           8.4154   43.5373    8.1441 C.3     1  UNL1        0.0094
     10 C           7.3211   44.3977    8.7973 C.3     1  UNL1        0.0219
     11 C           5.9093   44.0296    8.3394 C.3     1  UNL1        0.0935
     12 C           6.7265   41.7258    7.6754 C.3     1  UNL1        0.0993
     13 C           4.6500   41.9744    9.0633 C.2     1  UNL1        0.2559
     14 N           5.7422   42.5762    8.3514 N.am    1  UNL1       -0.2771
     15 O           4.5185   40.7212    9.0813 O.2     1  UNL1       -0.2721
     16 C           3.6315   42.8132    9.7618 C.3     1  UNL1        0.2272
     17 C           2.5363   42.2275   11.5841 C.3     1  UNL1        0.1748
     18 O           2.5859   42.0060   10.2088 O.3     1  UNL1       -0.3417
     19 N          12.4981   40.8571    7.3586 N.pl3   1  UNL1       -0.2820
     20 H          12.6699   40.1501    8.0219 H       1  UNL1        0.1551
     21 C          13.5558   41.7937    7.1213 C.ar    1  UNL1        0.1526
     22 C          15.7501   42.5895    7.5430 C.ar    1  UNL1        0.1210
     23 C          15.5525   43.6224    6.6255 C.ar    1  UNL1        0.1196
     24 C          13.3615   42.8285    6.2040 C.ar    1  UNL1        0.1332
     25 N          14.7489   41.6991    7.7705 N.ar    1  UNL1       -0.2258
     26 N          14.3627   43.7194    5.9760 N.ar    1  UNL1       -0.2378
@<TRIPOS>BOND
     1     1     2    1
     2     2     7   ar
     3     3     6   ar
     4     4     5   ar
     5     5    19    1
     6    22    25   ar
     7    23    26   ar
     8    24    21   ar
     9     8     3    1
    10     8     9    1
    11     9    10    1
    12    10    11    1
    13    11    14    1
    14    12    14    1
    15    12     8    1
    16    16    13    1
    17    16    18    1
    18    17    18    1
    19    19    21    1
    20    14    13   am
    21     2     6   ar
    22     3     4   ar
    23     5     7   ar
    24    21    25   ar
    25    22    23   ar
    26    24    26   ar
    27    13    15    2
    28    19    20    1
@<TRIPOS>MOLECULE
Molport-020-278-777 MCULE-4915832117 PubChem-110255647
 26 28 0 0 0
SMALL
GASTEIGER

@<TRIPOS>ATOM
      1 C          15.8213   44.0725    5.9171 C.3     1  UNL1        0.0737
      2 C          15.5738   43.0016    6.9169 C.ar    1  UNL1        0.1406
      3 C          14.0914   41.4690    7.9397 C.ar    1  UNL1        0.0644
      4 C          15.1186   41.0193    8.7691 C.ar    1  UNL1        0.0492
      5 C          16.3825   41.5949    8.6412 C.ar    1  UNL1        0.1358
      6 N          14.3375   42.4508    7.0299 N.ar    1  UNL1       -0.2348
      7 N          16.5843   42.5741    7.7179 N.ar    1  UNL1       -0.2159
      8 C          12.7312   40.8668    8.0607 C.3     1  UNL1        0.0603
      9 C          12.8228   39.3893    8.4553 C.3     1  UNL1        0.0094
     10 C          11.4598   38.6780    8.4799 C.3     1  UNL1        0.0219
     11 C          10.3063   39.5660    8.0116 C.3     1  UNL1        0.0935
     12 C          11.9466   41.0332    6.7573 C.3     1  UNL1        0.0993
     13 C           9.8652   40.2123    5.6197 C.2     1  UNL1        0.2559
     14 N          10.6882   40.2820    6.7942 N.am    1  UNL1       -0.2771
     15 O          10.2059   40.8203    4.5697 O.2     1  UNL1       -0.2721
     16 C           8.5785   39.4553    5.6255 C.3     1  UNL1        0.2272
     17 C           7.0034   40.7108    6.5235 C.3     1  UNL1        0.1748
     18 O           7.5288   40.3121    5.2955 O.3     1  UNL1       -0.3417
     19 N          17.4444   41.1401    9.4884 N.pl3   1  UNL1       -0.2820
     20 H          18.0970   41.8147    9.7854 H       1  UNL1        0.1551
     21 C          17.6473   39.7973    9.9446 C.ar    1  UNL1        0.1526
     22 C          18.8704   37.7652    9.9213 C.ar    1  UNL1        0.1210
     23 C          17.9879   37.2226   10.8565 C.ar    1  UNL1        0.1196
     24 C          16.7661   39.2512   10.8801 C.ar    1  UNL1        0.1332
     25 N          18.6811   39.0388    9.4865 N.ar    1  UNL1       -0.2258
     26 N          16.9551   37.9773   11.3155 N.ar    1  UNL1       -0.2378
@<TRIPOS>BOND
     1     1     2    1
     2     2     7   ar
     3     3     6   ar
     4     4     5   ar
     5     5    19    1
     6    22    25   ar
     7    23    26   ar
     8    24    21   ar
     9     8     3    1
    10     8     9    1
    11     9    10    1
    12    10    11    1
    13    11    14    1
    14    12    14    1
    15    12     8    1
    16    16    13    1
    17    16    18    1
    18    17    18    1
    19    19    21    1
    20    14    13   am
    21     2     6   ar
    22     3     4   ar
    23     5     7   ar
    24    21    25   ar
    25    22    23   ar
    26    24    26   ar
    27    13    15    2
    28    19    20    1
@<TRIPOS>MOLECULE
Molport-020-278-777 MCULE-4915832117 PubChem-110255647
 26 28 0 0 0
SMALL
GASTEIGER

@<TRIPOS>ATOM
      1 C          11.2198   38.8290    5.8305 C.3     1  UNL1        0.0737
      2 C          11.5814   39.9113    6.7822 C.ar    1  UNL1        0.1406
      3 C          10.9570   41.8131    8.0414 C.ar    1  UNL1        0.0644
      4 C          12.2541   41.9140    8.5439 C.ar    1  UNL1        0.0492
      5 C          13.2047   40.9789    8.1354 C.ar    1  UNL1        0.1358
      6 N          10.6448   40.8148    7.1707 N.ar    1  UNL1       -0.2348
      7 N          12.8491   39.9968    7.2630 N.ar    1  UNL1       -0.2159
      8 C           9.9246   42.8040    8.4653 C.3     1  UNL1        0.0603
      9 C          10.1073   43.1846    9.9381 C.3     1  UNL1        0.0094
     10 C           9.0024   44.1118   10.4710 C.3     1  UNL1        0.0219
     11 C           7.8975   44.3841    9.4495 C.3     1  UNL1        0.0935
     12 C           8.5161   42.2602    8.2156 C.3     1  UNL1        0.0993
     13 C           6.1170   42.7366    8.7794 C.2     1  UNL1        0.2559
     14 N           7.4962   43.1355    8.8012 N.am    1  UNL1       -0.2771
     15 O           5.7788   41.6535    8.2312 O.2     1  UNL1       -0.2721
     16 C           5.0552   43.6058    9.3675 C.3     1  UNL1        0.2272
     17 C           3.7727   44.6311    7.8953 C.3     1  UNL1        0.1748
     18 O           4.9494   44.7828    8.6271 O.3     1  UNL1       -0.3417
     19 N          14.5399   41.0737    8.6457 N.pl3   1  UNL1       -0.2820
     20 H          14.7634   40.5041    9.4169 H       1  UNL1        0.1551
     21 C          15.5810   41.9185    8.1407 C.ar    1  UNL1        0.1526
     22 C          16.3391   43.6131    6.6644 C.ar    1  UNL1        0.1210
     23 C          17.6201   43.5159    7.2097 C.ar    1  UNL1        0.1196
     24 C          16.8640   41.8238    8.6840 C.ar    1  UNL1        0.1332
     25 N          15.3491   42.8134    7.1411 N.ar    1  UNL1       -0.2258
     26 N          17.8546   42.6235    8.2075 N.ar    1  UNL1       -0.2378
@<TRIPOS>BOND
     1     1     2    1
     2     2     7   ar
     3     3     6   ar
     4     4     5   ar
     5     5    19    1
     6    22    25   ar
     7    23    26   ar
     8    24    21   ar
     9     8     3    1
    10     8     9    1
    11     9    10    1
    12    10    11    1
    13    11    14    1
    14    12    14    1
    15    12     8    1
    16    16    13    1
    17    16    18    1
    18    17    18    1
    19    19    21    1
    20    14    13   am
    21     2     6   ar
    22     3     4   ar
    23     5     7   ar
    24    21    25   ar
    25    22    23   ar
    26    24    26   ar
    27    13    15    2
    28    19    20    1
