@<TRIPOS>MOLECULE
MolPort-002-095-155 2865898 CHEMBL1462922 CSSS00121602927 MCULE-7345048442 PubChem-2219051 ZINC000002865898 ZINC02865898
 21 22 0 0 0
SMALL
GASTEIGER

@<TRIPOS>ATOM
      1 C          11.9108   42.1446    7.3141 C.2     1  UNL1        0.2328
      2 N          12.6343   42.4056    6.1071 N.am    1  UNL1       -0.2512
      3 O          12.2431   42.6879    8.4011 O.2     1  UNL1       -0.2743
      4 H          12.3327   41.9510    5.2876 H       1  UNL1        0.1578
      5 C          13.7632   43.2782    6.0031 C.ar    1  UNL1        0.2616
      6 N          15.6912   44.0566    6.2210 N.ar    1  UNL1       -0.1497
      7 N          14.9941   44.9235    5.5072 N.ar    1  UNL1       -0.0438
      8 N          13.7641   44.4600    5.3528 N.ar    1  UNL1       -0.0918
      9 N          14.9608   43.0054    6.5515 N.ar    1  UNL1       -0.1137
     10 C          17.0908   44.2291    6.5706 C.3     1  UNL1        0.1514
     11 C          17.3271   43.7909    8.0065 C.3     1  UNL1        0.0283
     12 C          17.2141   41.5404    9.0728 C.3     1  UNL1        0.0001
     13 C          17.9274   42.3971    8.0435 C.3     1  UNL1        0.0021
     14 C          10.7678   41.1883    7.2912 C.3     1  UNL1        0.1117
     15 C           9.4734   41.9190    7.4061 C.ar    1  UNL1       -0.0130
     16 C           9.0634   42.4287    8.6435 C.ar    1  UNL1       -0.0029
     17 C           7.8405   43.0971    8.7548 C.ar    1  UNL1        0.0111
     18 C           7.0245   43.2536    7.6301 C.ar    1  UNL1        0.0577
     19 C           7.4298   42.7399    6.3945 C.ar    1  UNL1        0.0111
     20 C           8.6527   42.0715    6.2825 C.ar    1  UNL1       -0.0029
     21 CL          5.4936   44.0900    7.7699 Cl      1  UNL1       -0.0822
@<TRIPOS>BOND
     1    12    13    1
     2    13    11    1
     3    11    10    1
     4    10     6    1
     5     5     8   ar
     6     5     2    1
     7    14     1    1
     8    14    15    1
     9    16    17   ar
    10    18    21    1
    11    18    19   ar
    12    20    15   ar
    13     6     7   ar
    14     6     9   ar
    15     2     1   am
    16     5     9   ar
    17     1     3    2
    18    15    16   ar
    19    17    18   ar
    20    19    20   ar
    21     7     8   ar
    22     2     4    1
@<TRIPOS>MOLECULE
MolPort-002-095-155 2865898 CHEMBL1462922 CSSS00121602927 MCULE-7345048442 PubChem-2219051 ZINC000002865898 ZINC02865898
 21 22 0 0 0
SMALL
GASTEIGER

@<TRIPOS>ATOM
      1 C          11.7703   41.6879    7.9815 C.2     1  UNL1        0.2328
      2 N          10.4340   41.1778    7.9311 N.am    1  UNL1       -0.2512
      3 O          12.0525   42.7031    8.6720 O.2     1  UNL1       -0.2743
      4 H          10.2700   40.3838    7.3725 H       1  UNL1        0.1578
      5 C           9.3188   41.7360    8.6322 C.ar    1  UNL1        0.2616
      6 N           7.4421   42.5693    9.0246 N.ar    1  UNL1       -0.1497
      7 N           8.0764   42.4641   10.1795 N.ar    1  UNL1       -0.0438
      8 N           9.2727   41.9404    9.9647 N.ar    1  UNL1       -0.0918
      9 N           8.1818   42.1204    8.0250 N.ar    1  UNL1       -0.1137
     10 C           6.0921   43.0870    8.8816 C.3     1  UNL1        0.1514
     11 C           6.1252   44.4509    8.2121 C.3     1  UNL1        0.0283
     12 C           3.6780   44.1093    8.5422 C.3     1  UNL1        0.0001
     13 C           4.7367   44.8442    7.7413 C.3     1  UNL1        0.0021
     14 C          12.8375   41.0279    7.1771 C.3     1  UNL1        0.1117
     15 C          14.1284   41.7592    7.3224 C.ar    1  UNL1       -0.0130
     16 C          15.0631   41.3483    8.2799 C.ar    1  UNL1       -0.0029
     17 C          16.2654   42.0461    8.4291 C.ar    1  UNL1        0.0111
     18 C          16.5331   43.1575    7.6240 C.ar    1  UNL1        0.0577
     19 C          15.5981   43.5729    6.6710 C.ar    1  UNL1        0.0111
     20 C          14.3957   42.8754    6.5213 C.ar    1  UNL1       -0.0029
     21 CL         18.0381   44.0309    7.8112 Cl      1  UNL1       -0.0822
@<TRIPOS>BOND
     1    12    13    1
     2    13    11    1
     3    11    10    1
     4    10     6    1
     5     5     8   ar
     6     5     2    1
     7    14     1    1
     8    14    15    1
     9    16    17   ar
    10    18    21    1
    11    18    19   ar
    12    20    15   ar
    13     6     7   ar
    14     6     9   ar
    15     2     1   am
    16     5     9   ar
    17     1     3    2
    18    15    16   ar
    19    17    18   ar
    20    19    20   ar
    21     7     8   ar
    22     2     4    1
@<TRIPOS>MOLECULE
MolPort-002-095-155 2865898 CHEMBL1462922 CSSS00121602927 MCULE-7345048442 PubChem-2219051 ZINC000002865898 ZINC02865898
 21 22 0 0 0
SMALL
GASTEIGER

@<TRIPOS>ATOM
      1 C          11.9819   41.8314    6.8273 C.2     1  UNL1        0.2328
      2 N          11.8341   42.5066    8.0806 N.am    1  UNL1       -0.2512
      3 O          11.3859   40.7449    6.6004 O.2     1  UNL1       -0.2743
      4 H          12.3259   43.3504    8.2044 H       1  UNL1        0.1578
      5 C          11.0248   42.0462    9.1667 C.ar    1  UNL1        0.2616
      6 N           9.3669   41.6950   10.3909 N.ar    1  UNL1       -0.1497
      7 N          10.4105   41.1232   10.9663 N.ar    1  UNL1       -0.0438
      8 N          11.4802   41.3300   10.2150 N.ar    1  UNL1       -0.0918
      9 N           9.7037   42.2834    9.2559 N.ar    1  UNL1       -0.1137
     10 C           8.0176   41.6543   10.9280 C.3     1  UNL1        0.1514
     11 C           8.0380   41.9754   12.4133 C.3     1  UNL1        0.0283
     12 C           9.2726   41.1533   14.4169 C.3     1  UNL1        0.0001
     13 C           8.4387   40.7503   13.2151 C.3     1  UNL1        0.0021
     14 C          12.8822   42.4053    5.7873 C.3     1  UNL1        0.1117
     15 C          14.1905   42.7949    6.3868 C.ar    1  UNL1       -0.0130
     16 C          14.8020   41.9660    7.3345 C.ar    1  UNL1       -0.0029
     17 C          16.0195   42.3409    7.9107 C.ar    1  UNL1        0.0111
     18 C          16.6251   43.5464    7.5429 C.ar    1  UNL1        0.0577
     19 C          16.0127   44.3783    6.6007 C.ar    1  UNL1        0.0111
     20 C          14.7953   44.0039    6.0241 C.ar    1  UNL1       -0.0029
     21 CL         18.1489   44.0155    8.2646 Cl      1  UNL1       -0.0822
@<TRIPOS>BOND
     1    12    13    1
     2    13    11    1
     3    11    10    1
     4    10     6    1
     5     5     8   ar
     6     5     2    1
     7    14     1    1
     8    14    15    1
     9    16    17   ar
    10    18    21    1
    11    18    19   ar
    12    20    15   ar
    13     6     7   ar
    14     6     9   ar
    15     2     1   am
    16     5     9   ar
    17     1     3    2
    18    15    16   ar
    19    17    18   ar
    20    19    20   ar
    21     7     8   ar
    22     2     4    1
@<TRIPOS>MOLECULE
MolPort-002-095-155 2865898 CHEMBL1462922 CSSS00121602927 MCULE-7345048442 PubChem-2219051 ZINC000002865898 ZINC02865898
 21 22 0 0 0
SMALL
GASTEIGER

@<TRIPOS>ATOM
      1 C          11.4197   41.8376    7.7136 C.2     1  UNL1        0.2328
      2 N          10.1367   41.2034    7.7182 N.am    1  UNL1       -0.2512
      3 O          11.7628   42.6165    8.6424 O.2     1  UNL1       -0.2743
      4 H           9.9203   40.6072    6.9653 H       1  UNL1        0.1578
      5 C           9.1453   41.3715    8.7359 C.ar    1  UNL1        0.2616
      6 N           7.2911   41.4865    9.6945 N.ar    1  UNL1       -0.1497
      7 N           8.2206   41.7248   10.6035 N.ar    1  UNL1       -0.0438
      8 N           9.4099   41.6615   10.0264 N.ar    1  UNL1       -0.0918
      9 N           7.8249   41.2550    8.5074 N.ar    1  UNL1       -0.1137
     10 C           5.8661   41.4560    9.9762 C.3     1  UNL1        0.1514
     11 C           5.1306   42.4067    9.0462 C.3     1  UNL1        0.0283
     12 C           2.8867   41.4238    9.5077 C.3     1  UNL1        0.0001
     13 C           3.7319   42.6824    9.5679 C.3     1  UNL1        0.0021
     14 C          12.3507   41.5995    6.5742 C.3     1  UNL1        0.1117
     15 C          13.6898   42.1880    6.8626 C.ar    1  UNL1       -0.0130
     16 C          14.1153   43.3319    6.1772 C.ar    1  UNL1       -0.0029
     17 C          15.3789   43.8723    6.4340 C.ar    1  UNL1        0.0111
     18 C          16.2199   43.2680    7.3734 C.ar    1  UNL1        0.0577
     19 C          15.7988   42.1220    8.0548 C.ar    1  UNL1        0.0111
     20 C          14.5353   41.5811    7.7985 C.ar    1  UNL1       -0.0029
     21 CL         17.8017   43.9446    7.6944 Cl      1  UNL1       -0.0822
@<TRIPOS>BOND
     1    12    13    1
     2    13    11    1
     3    11    10    1
     4    10     6    1
     5     5     8   ar
     6     5     2    1
     7    14     1    1
     8    14    15    1
     9    16    17   ar
    10    18    21    1
    11    18    19   ar
    12    20    15   ar
    13     6     7   ar
    14     6     9   ar
    15     2     1   am
    16     5     9   ar
    17     1     3    2
    18    15    16   ar
    19    17    18   ar
    20    19    20   ar
    21     7     8   ar
    22     2     4    1
@<TRIPOS>MOLECULE
MolPort-002-095-155 2865898 CHEMBL1462922 CSSS00121602927 MCULE-7345048442 PubChem-2219051 ZINC000002865898 ZINC02865898
 21 22 0 0 0
SMALL
GASTEIGER

@<TRIPOS>ATOM
      1 C          10.3246   42.5035   10.0484 C.2     1  UNL1        0.2328
      2 N          10.7351   41.5222    9.0908 N.am    1  UNL1       -0.2512
      3 O          10.6871   43.7054    9.9432 O.2     1  UNL1       -0.2743
      4 H          10.4250   40.5975    9.2244 H       1  UNL1        0.1578
      5 C          11.5627   41.7855    7.9539 C.ar    1  UNL1        0.2616
      6 N          13.1816   42.4005    6.7828 N.ar    1  UNL1       -0.1497
      7 N          12.2646   41.9143    5.9643 N.ar    1  UNL1       -0.0438
      8 N          11.2223   41.5172    6.6766 N.ar    1  UNL1       -0.0918
      9 N          12.7866   42.3364    8.0428 N.ar    1  UNL1       -0.1137
     10 C          14.4701   42.9127    6.3492 C.3     1  UNL1        0.1514
     11 C          15.4848   42.7905    7.4740 C.3     1  UNL1        0.0283
     12 C          17.7061   43.6109    8.2530 C.3     1  UNL1        0.0001
     13 C          16.4841   43.9316    7.4128 C.3     1  UNL1        0.0021
     14 C           9.4835   42.0897   11.2072 C.3     1  UNL1        0.1117
     15 C           8.0779   41.8492   10.7725 C.ar    1  UNL1       -0.0130
     16 C           7.7089   42.0680    9.4402 C.ar    1  UNL1       -0.0029
     17 C           6.3862   41.8609    9.0371 C.ar    1  UNL1        0.0111
     18 C           5.4303   41.4384    9.9660 C.ar    1  UNL1        0.0577
     19 C           5.7960   41.2250   11.2986 C.ar    1  UNL1        0.0111
     20 C           7.1185   41.4318   11.7023 C.ar    1  UNL1       -0.0029
     21 CL          3.7748   41.1796    9.4612 Cl      1  UNL1       -0.0822
@<TRIPOS>BOND
     1    12    13    1
     2    13    11    1
     3    11    10    1
     4    10     6    1
     5     5     8   ar
     6     5     2    1
     7    14     1    1
     8    14    15    1
     9    16    17   ar
    10    18    21    1
    11    18    19   ar
    12    20    15   ar
    13     6     7   ar
    14     6     9   ar
    15     2     1   am
    16     5     9   ar
    17     1     3    2
    18    15    16   ar
    19    17    18   ar
    20    19    20   ar
    21     7     8   ar
    22     2     4    1
@<TRIPOS>MOLECULE
MolPort-002-095-155 2865898 CHEMBL1462922 CSSS00121602927 MCULE-7345048442 PubChem-2219051 ZINC000002865898 ZINC02865898
 21 22 0 0 0
SMALL
GASTEIGER

@<TRIPOS>ATOM
      1 C          11.2360   41.9912    7.2850 C.2     1  UNL1        0.2328
      2 N           9.8855   41.5419    7.1344 N.am    1  UNL1       -0.2512
      3 O          11.5786   42.7018    8.2673 O.2     1  UNL1       -0.2743
      4 H           9.6733   40.9922    6.3458 H       1  UNL1        0.1578
      5 C           8.8209   41.8324    8.0450 C.ar    1  UNL1        0.2616
      6 N           7.5603   41.7453    9.7105 N.ar    1  UNL1       -0.1497
      7 N           7.1160   42.7149    8.9296 N.ar    1  UNL1       -0.0438
      8 N           7.8936   42.7947    7.8616 N.ar    1  UNL1       -0.0918
      9 N           8.6321   41.1654    9.1977 N.ar    1  UNL1       -0.1137
     10 C           6.9597   41.3859   10.9836 C.3     1  UNL1        0.1514
     11 C           7.6875   42.0861   12.1193 C.3     1  UNL1        0.0283
     12 C           8.7513   41.1627   14.1760 C.3     1  UNL1        0.0001
     13 C           8.7988   41.2045   12.6600 C.3     1  UNL1        0.0021
     14 C          12.2449   41.6415    6.2452 C.3     1  UNL1        0.1117
     15 C          13.6041   42.0865    6.6660 C.ar    1  UNL1       -0.0130
     16 C          14.1742   43.2315    6.0976 C.ar    1  UNL1       -0.0029
     17 C          15.4567   43.6377    6.4784 C.ar    1  UNL1        0.0111
     18 C          16.1720   42.8979    7.4250 C.ar    1  UNL1        0.0577
     19 C          15.6063   41.7506    7.9896 C.ar    1  UNL1        0.0111
     20 C          14.3239   41.3440    7.6092 C.ar    1  UNL1       -0.0029
     21 CL         17.7774   43.4065    7.9012 Cl      1  UNL1       -0.0822
@<TRIPOS>BOND
     1    12    13    1
     2    13    11    1
     3    11    10    1
     4    10     6    1
     5     5     8   ar
     6     5     2    1
     7    14     1    1
     8    14    15    1
     9    16    17   ar
    10    18    21    1
    11    18    19   ar
    12    20    15   ar
    13     6     7   ar
    14     6     9   ar
    15     2     1   am
    16     5     9   ar
    17     1     3    2
    18    15    16   ar
    19    17    18   ar
    20    19    20   ar
    21     7     8   ar
    22     2     4    1
@<TRIPOS>MOLECULE
MolPort-002-095-155 2865898 CHEMBL1462922 CSSS00121602927 MCULE-7345048442 PubChem-2219051 ZINC000002865898 ZINC02865898
 21 22 0 0 0
SMALL
GASTEIGER

@<TRIPOS>ATOM
      1 C           9.6883   41.5781    6.8583 C.2     1  UNL1        0.2328
      2 N          10.9141   41.4863    6.1252 N.am    1  UNL1       -0.2512
      3 O           9.6888   41.7039    8.1118 O.2     1  UNL1       -0.2743
      4 H          10.8542   41.3855    5.1477 H       1  UNL1        0.1578
      5 C          12.2202   41.5301    6.7076 C.ar    1  UNL1        0.2616
      6 N          14.1807   42.1192    7.1314 N.ar    1  UNL1       -0.1497
      7 N          13.9081   41.0761    7.8961 N.ar    1  UNL1       -0.0438
      8 N          12.6709   40.6762    7.6494 N.ar    1  UNL1       -0.0918
      9 N          13.1488   42.4431    6.3710 N.ar    1  UNL1       -0.1137
     10 C          15.4461   42.8329    7.1491 C.3     1  UNL1        0.1514
     11 C          16.3867   42.2007    8.1616 C.3     1  UNL1        0.0283
     12 C          17.8043   44.0121    7.2006 C.3     1  UNL1        0.0001
     13 C          17.8074   42.6883    7.9419 C.3     1  UNL1        0.0021
     14 C           8.3907   41.4888    6.1304 C.3     1  UNL1        0.1117
     15 C           7.2661   41.9078    7.0148 C.ar    1  UNL1       -0.0130
     16 C           6.8956   43.2557    7.0869 C.ar    1  UNL1       -0.0029
     17 C           5.8535   43.6510    7.9310 C.ar    1  UNL1        0.0111
     18 C           5.1831   42.7001    8.7065 C.ar    1  UNL1        0.0577
     19 C           5.5557   41.3541    8.6401 C.ar    1  UNL1        0.0111
     20 C           6.5977   40.9582    7.7961 C.ar    1  UNL1       -0.0029
     21 CL          3.8789   43.1954    9.7632 Cl      1  UNL1       -0.0822
@<TRIPOS>BOND
     1    12    13    1
     2    13    11    1
     3    11    10    1
     4    10     6    1
     5     5     8   ar
     6     5     2    1
     7    14     1    1
     8    14    15    1
     9    16    17   ar
    10    18    21    1
    11    18    19   ar
    12    20    15   ar
    13     6     7   ar
    14     6     9   ar
    15     2     1   am
    16     5     9   ar
    17     1     3    2
    18    15    16   ar
    19    17    18   ar
    20    19    20   ar
    21     7     8   ar
    22     2     4    1
@<TRIPOS>MOLECULE
MolPort-002-095-155 2865898 CHEMBL1462922 CSSS00121602927 MCULE-7345048442 PubChem-2219051 ZINC000002865898 ZINC02865898
 21 22 0 0 0
SMALL
GASTEIGER

@<TRIPOS>ATOM
      1 C          11.0370   40.9729    7.6296 C.2     1  UNL1        0.2328
      2 N          10.2215   40.7359    6.4775 N.am    1  UNL1       -0.2512
      3 O          10.6364   41.7114    8.5683 O.2     1  UNL1       -0.2743
      4 H          10.5865   40.1532    5.7729 H       1  UNL1        0.1578
      5 C           8.9154   41.2831    6.2739 C.ar    1  UNL1        0.2616
      6 N           7.2713   42.5710    6.3668 N.ar    1  UNL1       -0.1497
      7 N           6.9195   41.5349    5.6252 N.ar    1  UNL1       -0.0438
      8 N           7.9410   40.6969    5.5485 N.ar    1  UNL1       -0.0918
      9 N           8.5178   42.4587    6.7928 N.ar    1  UNL1       -0.1137
     10 C           6.4032   43.7008    6.6507 C.3     1  UNL1        0.1514
     11 C           6.0000   43.6929    8.1160 C.3     1  UNL1        0.0283
     12 C           3.8077   43.2077    9.1989 C.3     1  UNL1        0.0001
     13 C           4.5592   44.1447    8.2718 C.3     1  UNL1        0.0021
     14 C          12.3954   40.3640    7.7037 C.3     1  UNL1        0.1117
     15 C          13.4395   41.3751    7.3717 C.ar    1  UNL1       -0.0130
     16 C          14.6373   41.4096    8.0950 C.ar    1  UNL1       -0.0029
     17 C          15.6082   42.3702    7.7961 C.ar    1  UNL1        0.0111
     18 C          15.3814   43.2995    6.7763 C.ar    1  UNL1        0.0577
     19 C          14.1830   43.2702    6.0566 C.ar    1  UNL1        0.0111
     20 C          13.2118   42.3098    6.3550 C.ar    1  UNL1       -0.0029
     21 CL         16.5968   44.5020    6.4027 Cl      1  UNL1       -0.0822
@<TRIPOS>BOND
     1    12    13    1
     2    13    11    1
     3    11    10    1
     4    10     6    1
     5     5     8   ar
     6     5     2    1
     7    14     1    1
     8    14    15    1
     9    16    17   ar
    10    18    21    1
    11    18    19   ar
    12    20    15   ar
    13     6     7   ar
    14     6     9   ar
    15     2     1   am
    16     5     9   ar
    17     1     3    2
    18    15    16   ar
    19    17    18   ar
    20    19    20   ar
    21     7     8   ar
    22     2     4    1
@<TRIPOS>MOLECULE
MolPort-002-095-155 2865898 CHEMBL1462922 CSSS00121602927 MCULE-7345048442 PubChem-2219051 ZINC000002865898 ZINC02865898
 21 22 0 0 0
SMALL
GASTEIGER

@<TRIPOS>ATOM
      1 C          11.5942   41.1904    7.8603 C.2     1  UNL1        0.2328
      2 N          10.5118   40.7277    7.0462 N.am    1  UNL1       -0.2512
      3 O          11.4865   42.2396    8.5493 O.2     1  UNL1       -0.2743
      4 H          10.6527   39.9038    6.5260 H       1  UNL1        0.1578
      5 C           9.2404   41.3736    6.9322 C.ar    1  UNL1        0.2616
      6 N           7.3419   42.1071    7.4100 N.ar    1  UNL1       -0.1497
      7 N           7.5869   42.4354    6.1533 N.ar    1  UNL1       -0.0438
      8 N           8.7843   41.9819    5.8181 N.ar    1  UNL1       -0.0918
      9 N           8.3539   41.4429    7.9415 N.ar    1  UNL1       -0.1137
     10 C           6.1247   42.4593    8.1207 C.3     1  UNL1        0.1514
     11 C           5.4737   41.2098    8.6903 C.3     1  UNL1        0.0283
     12 C           3.2720   42.1152    9.4299 C.3     1  UNL1        0.0001
     13 C           4.6085   41.5612    9.8871 C.3     1  UNL1        0.0021
     14 C          12.8807   40.4378    7.8661 C.3     1  UNL1        0.1117
     15 C          14.0313   41.3694    7.6907 C.ar    1  UNL1       -0.0130
     16 C          13.9846   42.3638    6.7067 C.ar    1  UNL1       -0.0029
     17 C          15.0717   43.2250    6.5296 C.ar    1  UNL1        0.0111
     18 C          16.2079   43.0909    7.3335 C.ar    1  UNL1        0.0577
     19 C          16.2585   42.0944    8.3130 C.ar    1  UNL1        0.0111
     20 C          15.1718   41.2330    8.4906 C.ar    1  UNL1       -0.0029
     21 CL         17.5685   44.1689    7.1113 Cl      1  UNL1       -0.0822
@<TRIPOS>BOND
     1    12    13    1
     2    13    11    1
     3    11    10    1
     4    10     6    1
     5     5     8   ar
     6     5     2    1
     7    14     1    1
     8    14    15    1
     9    16    17   ar
    10    18    21    1
    11    18    19   ar
    12    20    15   ar
    13     6     7   ar
    14     6     9   ar
    15     2     1   am
    16     5     9   ar
    17     1     3    2
    18    15    16   ar
    19    17    18   ar
    20    19    20   ar
    21     7     8   ar
    22     2     4    1
@<TRIPOS>MOLECULE
MolPort-002-095-155 2865898 CHEMBL1462922 CSSS00121602927 MCULE-7345048442 PubChem-2219051 ZINC000002865898 ZINC02865898
 21 22 0 0 0
SMALL
GASTEIGER

@<TRIPOS>ATOM
      1 C           8.3421   41.7980    9.9664 C.2     1  UNL1        0.2328
      2 N           8.9286   40.8965    9.0220 N.am    1  UNL1       -0.2512
      3 O           9.0125   42.7383   10.4697 O.2     1  UNL1       -0.2743
      4 H           8.3591   40.1779    8.6636 H       1  UNL1        0.1578
      5 C          10.2812   40.9621    8.5604 C.ar    1  UNL1        0.2616
      6 N          12.3599   40.7535    8.4839 N.ar    1  UNL1       -0.1497
      7 N          11.9816   41.3478    7.3655 N.ar    1  UNL1       -0.0438
      8 N          10.6667   41.4972    7.3838 N.ar    1  UNL1       -0.0918
      9 N          11.3255   40.4883    9.2634 N.ar    1  UNL1       -0.1137
     10 C          13.7365   40.4119    8.7986 C.3     1  UNL1        0.1514
     11 C          13.7828   39.1238    9.6038 C.3     1  UNL1        0.0283
     12 C          14.4713   38.2629   11.8396 C.3     1  UNL1        0.0001
     13 C          13.8564   39.4293   11.0889 C.3     1  UNL1        0.0021
     14 C           6.9259   41.5999   10.3866 C.3     1  UNL1        0.1117
     15 C           6.0219   42.5007    9.6160 C.ar    1  UNL1       -0.0130
     16 C           6.5520   43.3771    8.6620 C.ar    1  UNL1       -0.0029
     17 C           5.7060   44.2354    7.9532 C.ar    1  UNL1        0.0111
     18 C           4.3298   44.2211    8.1997 C.ar    1  UNL1        0.0577
     19 C           3.7991   43.3504    9.1564 C.ar    1  UNL1        0.0111
     20 C           4.6446   42.4918    9.8655 C.ar    1  UNL1       -0.0029
     21 CL          3.2712   45.2958    7.3125 Cl      1  UNL1       -0.0822
@<TRIPOS>BOND
     1    12    13    1
     2    13    11    1
     3    11    10    1
     4    10     6    1
     5     5     8   ar
     6     5     2    1
     7    14     1    1
     8    14    15    1
     9    16    17   ar
    10    18    21    1
    11    18    19   ar
    12    20    15   ar
    13     6     7   ar
    14     6     9   ar
    15     2     1   am
    16     5     9   ar
    17     1     3    2
    18    15    16   ar
    19    17    18   ar
    20    19    20   ar
    21     7     8   ar
    22     2     4    1
