@<TRIPOS>MOLECULE
MolPort-020-279-162 MCULE-1157596431 PubChem-110255916
 28 30 0 0 0
SMALL
GASTEIGER

@<TRIPOS>ATOM
      1 C          14.9649   41.7108    7.8494 C.ar    1  UNL1        0.1357
      2 C          12.8624   41.9874    6.7899 C.ar    1  UNL1        0.1411
      3 C          14.5717   43.5665    6.3744 C.ar    1  UNL1        0.0635
      4 C          15.4319   42.8701    7.2205 C.ar    1  UNL1        0.0492
      5 C          15.0387   44.8011    5.6924 C.3     1  UNL1        0.0522
      6 N          13.6906   41.2980    7.6183 N.ar    1  UNL1       -0.2159
      7 N          13.3067   43.1165    6.1736 N.ar    1  UNL1       -0.2349
      8 C          11.4702   41.4976    6.5680 C.3     1  UNL1        0.0746
      9 C          10.5984   41.7876    7.7818 C.3     1  UNL1        0.0104
     10 C           9.1943   41.2629    7.5309 C.3     1  UNL1        0.0178
     11 C           9.2486   39.7648    7.2148 C.3     1  UNL1        0.0725
     12 C          11.4699   39.9944    6.2651 C.3     1  UNL1        0.0800
     13 N          10.1134   39.4607    6.0656 N.3     1  UNL1       -0.2647
     14 C           9.5273   40.0077    4.8437 C.3     1  UNL1        0.1582
     15 C           9.4956   38.9685    3.7756 C.2     1  UNL1        0.2357
     16 N          10.1733   37.7309    3.9600 N.am    1  UNL1       -0.3277
     17 O           8.8595   39.1831    2.7116 O.2     1  UNL1       -0.2738
     18 H          10.6714   37.5618    4.7922 H       1  UNL1        0.1450
     19 H          10.1439   37.0439    3.2555 H       1  UNL1        0.1450
     20 N          15.7921   40.9415    8.7339 N.pl3   1  UNL1       -0.2835
     21 H          16.7594   40.9617    8.5519 H       1  UNL1        0.1550
     22 C          17.7673   39.4172   10.2033 C.3     1  UNL1        0.0340
     23 C          16.3240   39.4014   10.5744 C.ar    1  UNL1        0.0099
     24 C          15.3739   40.1450    9.8544 C.ar    1  UNL1        0.1291
     25 C          13.6442   39.3528   11.2882 C.ar    1  UNL1        0.1003
     26 C          14.5617   38.6030   12.0242 C.ar    1  UNL1        0.0204
     27 C          15.9082   38.6305   11.6615 C.ar    1  UNL1        0.0001
     28 N          14.0648   40.0987   10.2318 N.ar    1  UNL1       -0.2294
@<TRIPOS>BOND
     1    22    23    1
     2    24    28   ar
     3    24    20    1
     4    25    26   ar
     5    27    23   ar
     6     2     6   ar
     7     3     7   ar
     8     4     1   ar
     9     5     3    1
    10     8     2    1
    11     8     9    1
    12     9    10    1
    13    10    11    1
    14    11    13    1
    15    12    13    1
    16    12     8    1
    17    14    13    1
    18    14    15    1
    19    15    16   am
    20    20     1    1
    21    23    24   ar
    22    25    28   ar
    23    26    27   ar
    24     1     6   ar
    25     2     7   ar
    26     3     4   ar
    27    15    17    2
    28    20    21    1
    29    16    18    1
    30    16    19    1
@<TRIPOS>MOLECULE
MolPort-020-279-162 MCULE-1157596431 PubChem-110255916
 28 30 0 0 0
SMALL
GASTEIGER

@<TRIPOS>ATOM
      1 C          12.1386   41.5863    7.5897 C.ar    1  UNL1        0.1357
      2 C           9.9425   41.5292    8.4804 C.ar    1  UNL1        0.1411
      3 C          11.7367   40.7424    9.8032 C.ar    1  UNL1        0.0635
      4 C          12.6322   41.0353    8.7772 C.ar    1  UNL1        0.0492
      5 C          12.2307   40.1564   11.0761 C.3     1  UNL1        0.0522
      6 N          10.8047   41.8197    7.4707 N.ar    1  UNL1       -0.2159
      7 N          10.4124   40.9926    9.6395 N.ar    1  UNL1       -0.2349
      8 C           8.4856   41.8005    8.3038 C.3     1  UNL1        0.0746
      9 C           8.2119   42.3935    6.9287 C.3     1  UNL1        0.0104
     10 C           6.7248   42.6728    6.7871 C.3     1  UNL1        0.0178
     11 C           6.2624   43.6058    7.9109 C.3     1  UNL1        0.0725
     12 C           7.9776   42.7476    9.3976 C.3     1  UNL1        0.0800
     13 N           6.5489   43.0656    9.2477 N.3     1  UNL1       -0.2647
     14 C           5.7358   41.8752    9.4877 C.3     1  UNL1        0.1582
     15 C           5.4376   41.7375   10.9416 C.2     1  UNL1        0.2357
     16 N           4.2842   42.3579   11.4981 N.am    1  UNL1       -0.3277
     17 O           6.2033   41.0623   11.6769 O.2     1  UNL1       -0.2738
     18 H           3.6842   42.8865   10.9238 H       1  UNL1        0.1450
     19 H           4.0863   42.2585   12.4573 H       1  UNL1        0.1450
     20 N          12.9994   41.9137    6.4896 N.pl3   1  UNL1       -0.2835
     21 H          12.8994   41.3620    5.6803 H       1  UNL1        0.1550
     22 C          15.4449   41.6258    8.0131 C.3     1  UNL1        0.0340
     23 C          15.1806   42.8232    7.1659 C.ar    1  UNL1        0.0099
     24 C          13.9904   42.9526    6.4306 C.ar    1  UNL1        0.1291
     25 C          14.7160   45.0632    5.5975 C.ar    1  UNL1        0.1003
     26 C          15.9083   44.9660    6.3150 C.ar    1  UNL1        0.0204
     27 C          16.1374   43.8377    7.1024 C.ar    1  UNL1        0.0001
     28 N          13.7937   44.0665    5.6698 N.ar    1  UNL1       -0.2294
@<TRIPOS>BOND
     1    22    23    1
     2    24    28   ar
     3    24    20    1
     4    25    26   ar
     5    27    23   ar
     6     2     6   ar
     7     3     7   ar
     8     4     1   ar
     9     5     3    1
    10     8     2    1
    11     8     9    1
    12     9    10    1
    13    10    11    1
    14    11    13    1
    15    12    13    1
    16    12     8    1
    17    14    13    1
    18    14    15    1
    19    15    16   am
    20    20     1    1
    21    23    24   ar
    22    25    28   ar
    23    26    27   ar
    24     1     6   ar
    25     2     7   ar
    26     3     4   ar
    27    15    17    2
    28    20    21    1
    29    16    18    1
    30    16    19    1
@<TRIPOS>MOLECULE
MolPort-020-279-162 MCULE-1157596431 PubChem-110255916
 28 30 0 0 0
SMALL
GASTEIGER

@<TRIPOS>ATOM
      1 C          13.2381   40.9875    8.6065 C.ar    1  UNL1        0.1357
      2 C          11.3876   41.2407   10.0662 C.ar    1  UNL1        0.1411
      3 C          13.2256   39.9276   10.7629 C.ar    1  UNL1        0.0635
      4 C          13.8749   40.1821    9.5569 C.ar    1  UNL1        0.0492
      5 C          13.8763   39.0758   11.7918 C.3     1  UNL1        0.0522
      6 N          12.0091   41.4972    8.8850 N.ar    1  UNL1       -0.2159
      7 N          11.9981   40.4581   10.9973 N.ar    1  UNL1       -0.2349
      8 C          10.0372   41.8200   10.3273 C.3     1  UNL1        0.0746
      9 C           9.5471   41.4367   11.7166 C.3     1  UNL1        0.0104
     10 C           8.1654   42.0272   11.9445 C.3     1  UNL1        0.0178
     11 C           7.2076   41.5446   10.8505 C.3     1  UNL1        0.0725
     12 C           9.0351   41.3501    9.2659 C.3     1  UNL1        0.0800
     13 N           7.6808   41.8757    9.4987 N.3     1  UNL1       -0.2647
     14 C           7.6579   43.3240    9.3048 C.3     1  UNL1        0.1582
     15 C           6.4756   43.7174    8.4868 C.2     1  UNL1        0.2357
     16 N           5.8699   42.7785    7.6056 N.am    1  UNL1       -0.3277
     17 O           6.0061   44.8806    8.5833 O.2     1  UNL1       -0.2738
     18 H           6.2363   41.8679    7.5291 H       1  UNL1        0.1450
     19 H           5.0845   43.0394    7.0725 H       1  UNL1        0.1450
     20 N          13.8440   41.2932    7.3424 N.pl3   1  UNL1       -0.2835
     21 H          13.8560   40.5659    6.6790 H       1  UNL1        0.1550
     22 C          16.4847   41.9914    8.3034 C.3     1  UNL1        0.0340
     23 C          15.7161   42.8854    7.3917 C.ar    1  UNL1        0.0099
     24 C          14.4353   42.5367    6.9313 C.ar    1  UNL1        0.1291
     25 C          14.3089   44.5692    5.6953 C.ar    1  UNL1        0.1003
     26 C          15.5785   44.9455    6.1339 C.ar    1  UNL1        0.0204
     27 C          16.2822   44.0955    6.9869 C.ar    1  UNL1        0.0001
     28 N          13.7709   43.3872    6.0985 N.ar    1  UNL1       -0.2294
@<TRIPOS>BOND
     1    22    23    1
     2    24    28   ar
     3    24    20    1
     4    25    26   ar
     5    27    23   ar
     6     2     6   ar
     7     3     7   ar
     8     4     1   ar
     9     5     3    1
    10     8     2    1
    11     8     9    1
    12     9    10    1
    13    10    11    1
    14    11    13    1
    15    12    13    1
    16    12     8    1
    17    14    13    1
    18    14    15    1
    19    15    16   am
    20    20     1    1
    21    23    24   ar
    22    25    28   ar
    23    26    27   ar
    24     1     6   ar
    25     2     7   ar
    26     3     4   ar
    27    15    17    2
    28    20    21    1
    29    16    18    1
    30    16    19    1
@<TRIPOS>MOLECULE
MolPort-020-279-162 MCULE-1157596431 PubChem-110255916
 28 30 0 0 0
SMALL
GASTEIGER

@<TRIPOS>ATOM
      1 C          13.5531   41.0829    8.7644 C.ar    1  UNL1        0.1357
      2 C          11.6065   41.2500   10.1069 C.ar    1  UNL1        0.1411
      3 C          13.3497   39.8070   10.7902 C.ar    1  UNL1        0.0635
      4 C          14.0941   40.1614    9.6674 C.ar    1  UNL1        0.0492
      5 C          13.8974   38.8307   11.7672 C.3     1  UNL1        0.0522
      6 N          12.3215   41.6048    9.0068 N.ar    1  UNL1       -0.2159
      7 N          12.1235   40.3541   10.9913 N.ar    1  UNL1       -0.2349
      8 C          10.2572   41.8472   10.3307 C.3     1  UNL1        0.0746
      9 C           9.6282   41.2935   11.6016 C.3     1  UNL1        0.0104
     10 C           8.2512   41.9079   11.7916 C.3     1  UNL1        0.0178
     11 C           7.3838   41.6292   10.5598 C.3     1  UNL1        0.0725
     12 C           9.3432   41.5785    9.1290 C.3     1  UNL1        0.0800
     13 N           7.9909   42.1268    9.3168 N.3     1  UNL1       -0.2647
     14 C           8.0331   43.5875    9.3341 C.3     1  UNL1        0.1582
     15 C           7.1024   44.1436    8.3113 C.2     1  UNL1        0.2357
     16 N           7.3128   43.8747    6.9299 N.am    1  UNL1       -0.3277
     17 O           6.1221   44.8450    8.6717 O.2     1  UNL1       -0.2738
     18 H           8.0795   43.3259    6.6464 H       1  UNL1        0.1450
     19 H           6.6918   44.2373    6.2576 H       1  UNL1        0.1450
     20 N          14.2600   41.4957    7.5862 N.pl3   1  UNL1       -0.2835
     21 H          13.9245   41.1410    6.7313 H       1  UNL1        0.1550
     22 C          14.1750   43.7846    5.8146 C.3     1  UNL1        0.0340
     23 C          15.3700   43.4798    6.6514 C.ar    1  UNL1        0.0099
     24 C          15.4005   42.3664    7.5078 C.ar    1  UNL1        0.1291
     25 C          17.6082   42.9373    8.1973 C.ar    1  UNL1        0.1003
     26 C          17.6106   44.0511    7.3575 C.ar    1  UNL1        0.0204
     27 C          16.4829   44.3198    6.5820 C.ar    1  UNL1        0.0001
     28 N          16.5165   42.1286    8.2538 N.ar    1  UNL1       -0.2294
@<TRIPOS>BOND
     1    22    23    1
     2    24    28   ar
     3    24    20    1
     4    25    26   ar
     5    27    23   ar
     6     2     6   ar
     7     3     7   ar
     8     4     1   ar
     9     5     3    1
    10     8     2    1
    11     8     9    1
    12     9    10    1
    13    10    11    1
    14    11    13    1
    15    12    13    1
    16    12     8    1
    17    14    13    1
    18    14    15    1
    19    15    16   am
    20    20     1    1
    21    23    24   ar
    22    25    28   ar
    23    26    27   ar
    24     1     6   ar
    25     2     7   ar
    26     3     4   ar
    27    15    17    2
    28    20    21    1
    29    16    18    1
    30    16    19    1
@<TRIPOS>MOLECULE
MolPort-020-279-162 MCULE-1157596431 PubChem-110255916
 28 30 0 0 0
SMALL
GASTEIGER

@<TRIPOS>ATOM
      1 C          14.4682   40.9500    8.9737 C.ar    1  UNL1        0.1357
      2 C          12.1956   41.0133    9.6450 C.ar    1  UNL1        0.1411
      3 C          13.6880   39.5781   10.7855 C.ar    1  UNL1        0.0635
      4 C          14.7325   39.9997    9.9659 C.ar    1  UNL1        0.0492
      5 C          13.9375   38.5699   11.8479 C.3     1  UNL1        0.0522
      6 N          13.2051   41.4336    8.8377 N.ar    1  UNL1       -0.2159
      7 N          12.4420   40.0889   10.6129 N.ar    1  UNL1       -0.2349
      8 C          10.8238   41.5705    9.4572 C.3     1  UNL1        0.0746
      9 C          10.1913   41.9059   10.8007 C.3     1  UNL1        0.0104
     10 C           8.7919   42.4545   10.5760 C.3     1  UNL1        0.0178
     11 C           7.9555   41.4384    9.7917 C.3     1  UNL1        0.0725
     12 C           9.9400   40.5792    8.6906 C.3     1  UNL1        0.0800
     13 N           8.5675   41.0757    8.5052 N.3     1  UNL1       -0.2647
     14 C           8.5618   42.2299    7.6089 C.3     1  UNL1        0.1582
     15 C           8.6990   41.7853    6.1928 C.2     1  UNL1        0.2357
     16 N           9.8636   42.1198    5.4467 N.am    1  UNL1       -0.3277
     17 O           7.7861   41.1038    5.6589 O.2     1  UNL1       -0.2738
     18 H          10.5788   42.6530    5.8633 H       1  UNL1        0.1450
     19 H           9.9543   41.8180    4.5140 H       1  UNL1        0.1450
     20 N          15.4924   41.4316    8.0919 N.pl3   1  UNL1       -0.2835
     21 H          16.3215   40.9019    8.0584 H       1  UNL1        0.1550
     22 C          17.5898   43.4154    8.3147 C.3     1  UNL1        0.0340
     23 C          16.4622   43.5657    7.3519 C.ar    1  UNL1        0.0099
     24 C          15.4496   42.5968    7.2520 C.ar    1  UNL1        0.1291
     25 C          14.3754   43.8720    5.5505 C.ar    1  UNL1        0.1003
     26 C          15.3647   44.8526    5.6244 C.ar    1  UNL1        0.0204
     27 C          16.4121   44.6943    6.5318 C.ar    1  UNL1        0.0001
     28 N          14.4383   42.7783    6.3561 N.ar    1  UNL1       -0.2294
@<TRIPOS>BOND
     1    22    23    1
     2    24    28   ar
     3    24    20    1
     4    25    26   ar
     5    27    23   ar
     6     2     6   ar
     7     3     7   ar
     8     4     1   ar
     9     5     3    1
    10     8     2    1
    11     8     9    1
    12     9    10    1
    13    10    11    1
    14    11    13    1
    15    12    13    1
    16    12     8    1
    17    14    13    1
    18    14    15    1
    19    15    16   am
    20    20     1    1
    21    23    24   ar
    22    25    28   ar
    23    26    27   ar
    24     1     6   ar
    25     2     7   ar
    26     3     4   ar
    27    15    17    2
    28    20    21    1
    29    16    18    1
    30    16    19    1
@<TRIPOS>MOLECULE
MolPort-020-279-162 MCULE-1157596431 PubChem-110255916
 28 30 0 0 0
SMALL
GASTEIGER

@<TRIPOS>ATOM
      1 C          12.9846   41.5684    7.8441 C.ar    1  UNL1        0.1357
      2 C          10.7178   41.1979    8.4304 C.ar    1  UNL1        0.1411
      3 C          12.4174   40.4343    9.8851 C.ar    1  UNL1        0.0635
      4 C          13.3910   40.9302    9.0210 C.ar    1  UNL1        0.0492
      5 C          12.8179   39.7515   11.1424 C.3     1  UNL1        0.0522
      6 N          11.6568   41.6865    7.5778 N.ar    1  UNL1       -0.2159
      7 N          11.1025   40.5751    9.5776 N.ar    1  UNL1       -0.2349
      8 C           9.2712   41.3485    8.0953 C.3     1  UNL1        0.0746
      9 C           9.0985   41.8192    6.6579 C.3     1  UNL1        0.0104
     10 C           7.6179   41.9781    6.3540 C.3     1  UNL1        0.0178
     11 C           6.9849   42.9534    7.3516 C.3     1  UNL1        0.0725
     12 C           8.5949   42.3324    9.0577 C.3     1  UNL1        0.0800
     13 N           7.1707   42.5334    8.7481 N.3     1  UNL1       -0.2647
     14 C           6.4177   41.3072    9.0029 C.3     1  UNL1        0.1582
     15 C           5.0175   41.6330    9.3969 C.2     1  UNL1        0.2357
     16 N           3.9248   40.9698    8.7715 N.am    1  UNL1       -0.3277
     17 O           4.8020   42.4901   10.2922 O.2     1  UNL1       -0.2738
     18 H           4.0920   40.2989    8.0708 H       1  UNL1        0.1450
     19 H           3.0016   41.1820    9.0396 H       1  UNL1        0.1450
     20 N          13.9289   42.1040    6.9061 N.pl3   1  UNL1       -0.2835
     21 H          13.6540   42.0972    5.9608 H       1  UNL1        0.1550
     22 C          14.7729   44.5182    5.5484 C.3     1  UNL1        0.0340
     23 C          15.6485   43.8200    6.5316 C.ar    1  UNL1        0.0099
     24 C          15.2289   42.6491    7.1849 C.ar    1  UNL1        0.1291
     25 C          17.2999   42.5420    8.3573 C.ar    1  UNL1        0.1003
     26 C          17.7472   43.7029    7.7263 C.ar    1  UNL1        0.0204
     27 C          16.9133   44.3420    6.8090 C.ar    1  UNL1        0.0001
     28 N          16.0653   42.0459    8.0765 N.ar    1  UNL1       -0.2294
@<TRIPOS>BOND
     1    22    23    1
     2    24    28   ar
     3    24    20    1
     4    25    26   ar
     5    27    23   ar
     6     2     6   ar
     7     3     7   ar
     8     4     1   ar
     9     5     3    1
    10     8     2    1
    11     8     9    1
    12     9    10    1
    13    10    11    1
    14    11    13    1
    15    12    13    1
    16    12     8    1
    17    14    13    1
    18    14    15    1
    19    15    16   am
    20    20     1    1
    21    23    24   ar
    22    25    28   ar
    23    26    27   ar
    24     1     6   ar
    25     2     7   ar
    26     3     4   ar
    27    15    17    2
    28    20    21    1
    29    16    18    1
    30    16    19    1
@<TRIPOS>MOLECULE
MolPort-020-279-162 MCULE-1157596431 PubChem-110255916
 28 30 0 0 0
SMALL
GASTEIGER

@<TRIPOS>ATOM
      1 C          12.8586   40.3568    8.9206 C.ar    1  UNL1        0.1357
      2 C          10.6107   40.4210    8.1706 C.ar    1  UNL1        0.1411
      3 C          11.0678   40.8121   10.4566 C.ar    1  UNL1        0.0635
      4 C          12.4304   40.6427   10.2215 C.ar    1  UNL1        0.0492
      5 C          10.5825   41.1162   11.8275 C.3     1  UNL1        0.0522
      6 N          11.9373   40.2529    7.9265 N.ar    1  UNL1       -0.2159
      7 N          10.1838   40.6989    9.4325 N.ar    1  UNL1       -0.2349
      8 C           9.6352   40.2952    7.0481 C.3     1  UNL1        0.0746
      9 C           8.3128   40.9579    7.4083 C.3     1  UNL1        0.0104
     10 C           7.3379   40.7983    6.2534 C.3     1  UNL1        0.0178
     11 C           7.1587   39.3123    5.9268 C.3     1  UNL1        0.0725
     12 C           9.4075   38.8204    6.6950 C.3     1  UNL1        0.0800
     13 N           8.4301   38.6461    5.6092 N.3     1  UNL1       -0.2647
     14 C           8.9661   39.1701    4.3546 C.3     1  UNL1        0.1582
     15 C           9.8716   38.1696    3.7215 C.2     1  UNL1        0.2357
     16 N          11.2690   38.4230    3.6334 N.am    1  UNL1       -0.3277
     17 O           9.3995   37.0934    3.2723 O.2     1  UNL1       -0.2738
     18 H          11.6398   39.2647    3.9845 H       1  UNL1        0.1450
     19 H          11.8651   37.7565    3.2214 H       1  UNL1        0.1450
     20 N          14.2448   40.1691    8.6018 N.pl3   1  UNL1       -0.2835
     21 H          14.5507   39.2365    8.5251 H       1  UNL1        0.1550
     22 C          13.7207   42.2727    6.6823 C.3     1  UNL1        0.0340
     23 C          14.9951   42.2083    7.4523 C.ar    1  UNL1        0.0099
     24 C          15.2390   41.1830    8.3815 C.ar    1  UNL1        0.1291
     25 C          17.3764   42.1138    8.8713 C.ar    1  UNL1        0.1003
     26 C          17.1660   43.1454    7.9563 C.ar    1  UNL1        0.0204
     27 C          15.9670   43.1887    7.2451 C.ar    1  UNL1        0.0001
     28 N          16.4201   41.1661    9.0620 N.ar    1  UNL1       -0.2294
@<TRIPOS>BOND
     1    22    23    1
     2    24    28   ar
     3    24    20    1
     4    25    26   ar
     5    27    23   ar
     6     2     6   ar
     7     3     7   ar
     8     4     1   ar
     9     5     3    1
    10     8     2    1
    11     8     9    1
    12     9    10    1
    13    10    11    1
    14    11    13    1
    15    12    13    1
    16    12     8    1
    17    14    13    1
    18    14    15    1
    19    15    16   am
    20    20     1    1
    21    23    24   ar
    22    25    28   ar
    23    26    27   ar
    24     1     6   ar
    25     2     7   ar
    26     3     4   ar
    27    15    17    2
    28    20    21    1
    29    16    18    1
    30    16    19    1
@<TRIPOS>MOLECULE
MolPort-020-279-162 MCULE-1157596431 PubChem-110255916
 28 30 0 0 0
SMALL
GASTEIGER

@<TRIPOS>ATOM
      1 C           9.7050   41.4438   10.6543 C.ar    1  UNL1        0.1357
      2 C           7.4184   41.6966   11.2260 C.ar    1  UNL1        0.1411
      3 C           8.9892   41.2768   12.9419 C.ar    1  UNL1        0.0635
      4 C          10.0178   41.2428   12.0031 C.ar    1  UNL1        0.0492
      5 C           9.2900   41.0667   14.3817 C.3     1  UNL1        0.0522
      6 N           8.4119   41.6658   10.2989 N.ar    1  UNL1       -0.2159
      7 N           7.7119   41.5019   12.5406 N.ar    1  UNL1       -0.2349
      8 C           6.0125   41.9415   10.7890 C.3     1  UNL1        0.0746
      9 C           5.0895   40.8489   11.3101 C.3     1  UNL1        0.0104
     10 C           3.6712   41.1180   10.8349 C.3     1  UNL1        0.0178
     11 C           3.6436   41.2041    9.3056 C.3     1  UNL1        0.0725
     12 C           5.9294   42.0176    9.2597 C.3     1  UNL1        0.0800
     13 N           4.5548   42.2314    8.7808 N.3     1  UNL1       -0.2647
     14 C           4.0829   43.5592    9.1680 C.3     1  UNL1        0.1582
     15 C           4.1861   44.5005    8.0169 C.2     1  UNL1        0.2357
     16 N           3.0254   45.1609    7.5254 N.am    1  UNL1       -0.3277
     17 O           5.3050   44.7189    7.4847 O.2     1  UNL1       -0.2738
     18 H           2.1493   44.9909    7.9409 H       1  UNL1        0.1450
     19 H           3.0986   45.7878    6.7698 H       1  UNL1        0.1450
     20 N          10.7102   41.4226    9.6308 N.pl3   1  UNL1       -0.2835
     21 H          10.4519   41.8025    8.7600 H       1  UNL1        0.1550
     22 C          12.6329   42.0907    7.5714 C.3     1  UNL1        0.0340
     23 C          12.9907   41.2297    8.7340 C.ar    1  UNL1        0.0099
     24 C          12.0498   40.9118    9.7278 C.ar    1  UNL1        0.1291
     25 C          13.6853   39.6247   10.8869 C.ar    1  UNL1        0.1003
     26 C          14.6436   39.9212    9.9177 C.ar    1  UNL1        0.0204
     27 C          14.2897   40.7287    8.8369 C.ar    1  UNL1        0.0001
     28 N          12.4242   40.1203   10.7727 N.ar    1  UNL1       -0.2294
@<TRIPOS>BOND
     1    22    23    1
     2    24    28   ar
     3    24    20    1
     4    25    26   ar
     5    27    23   ar
     6     2     6   ar
     7     3     7   ar
     8     4     1   ar
     9     5     3    1
    10     8     2    1
    11     8     9    1
    12     9    10    1
    13    10    11    1
    14    11    13    1
    15    12    13    1
    16    12     8    1
    17    14    13    1
    18    14    15    1
    19    15    16   am
    20    20     1    1
    21    23    24   ar
    22    25    28   ar
    23    26    27   ar
    24     1     6   ar
    25     2     7   ar
    26     3     4   ar
    27    15    17    2
    28    20    21    1
    29    16    18    1
    30    16    19    1
@<TRIPOS>MOLECULE
MolPort-020-279-162 MCULE-1157596431 PubChem-110255916
 28 30 0 0 0
SMALL
GASTEIGER

@<TRIPOS>ATOM
      1 C          11.1696   41.4428    6.7847 C.ar    1  UNL1        0.1357
      2 C           8.8168   41.6254    6.5593 C.ar    1  UNL1        0.1411
      3 C          10.0265   40.3668    4.9655 C.ar    1  UNL1        0.0635
      4 C          11.2162   40.6509    5.6322 C.ar    1  UNL1        0.0492
      5 C          10.0440   39.5287    3.7388 C.3     1  UNL1        0.0522
      6 N           9.9699   41.9109    7.2199 N.ar    1  UNL1       -0.2159
      7 N           8.8513   40.8563    5.4371 N.ar    1  UNL1       -0.2349
      8 C           7.5229   42.1633    7.0730 C.3     1  UNL1        0.0746
      9 C           7.2025   43.5031    6.4249 C.3     1  UNL1        0.0104
     10 C           5.8898   44.0306    6.9803 C.3     1  UNL1        0.0178
     11 C           5.9795   44.1437    8.5056 C.3     1  UNL1        0.0725
     12 C           7.5692   42.3126    8.5985 C.3     1  UNL1        0.0800
     13 N           6.3218   42.8665    9.1479 N.3     1  UNL1       -0.2647
     14 C           5.2257   41.9150    8.9781 C.3     1  UNL1        0.1582
     15 C           4.0803   42.2836    9.8579 C.2     1  UNL1        0.2357
     16 N           4.2575   42.3658   11.2674 N.am    1  UNL1       -0.3277
     17 O           2.9559   42.5323    9.3513 O.2     1  UNL1       -0.2738
     18 H           5.1368   42.1714   11.6652 H       1  UNL1        0.1450
     19 H           3.5007   42.6169   11.8449 H       1  UNL1        0.1450
     20 N          12.3526   41.7776    7.5239 N.pl3   1  UNL1       -0.2835
     21 H          12.3951   41.4458    8.4498 H       1  UNL1        0.1550
     22 C          14.9932   41.1196    8.5132 C.3     1  UNL1        0.0340
     23 C          14.7687   42.2300    7.5448 C.ar    1  UNL1        0.0099
     24 C          13.4830   42.5407    7.0712 C.ar    1  UNL1        0.1291
     25 C          14.3810   44.3024    5.7425 C.ar    1  UNL1        0.1003
     26 C          15.6706   44.0200    6.1930 C.ar    1  UNL1        0.0204
     27 C          15.8606   42.9770    7.0992 C.ar    1  UNL1        0.0001
     28 N          13.3275   43.5656    6.1859 N.ar    1  UNL1       -0.2294
@<TRIPOS>BOND
     1    22    23    1
     2    24    28   ar
     3    24    20    1
     4    25    26   ar
     5    27    23   ar
     6     2     6   ar
     7     3     7   ar
     8     4     1   ar
     9     5     3    1
    10     8     2    1
    11     8     9    1
    12     9    10    1
    13    10    11    1
    14    11    13    1
    15    12    13    1
    16    12     8    1
    17    14    13    1
    18    14    15    1
    19    15    16   am
    20    20     1    1
    21    23    24   ar
    22    25    28   ar
    23    26    27   ar
    24     1     6   ar
    25     2     7   ar
    26     3     4   ar
    27    15    17    2
    28    20    21    1
    29    16    18    1
    30    16    19    1
@<TRIPOS>MOLECULE
MolPort-020-279-162 MCULE-1157596431 PubChem-110255916
 28 30 0 0 0
SMALL
GASTEIGER

@<TRIPOS>ATOM
      1 C          14.4420   40.8793    8.5681 C.ar    1  UNL1        0.1357
      2 C          12.4035   41.8717    7.8758 C.ar    1  UNL1        0.1411
      3 C          14.4394   42.7290    7.0344 C.ar    1  UNL1        0.0635
      4 C          15.1509   41.7850    7.7714 C.ar    1  UNL1        0.0492
      5 C          15.1642   43.7043    6.1794 C.3     1  UNL1        0.0522
      6 N          13.0846   40.9453    8.6006 N.ar    1  UNL1       -0.2159
      7 N          13.0836   42.7575    7.0980 N.ar    1  UNL1       -0.2349
      8 C          10.9131   41.9080    7.9445 C.3     1  UNL1        0.0746
      9 C          10.4502   42.6533    9.1886 C.3     1  UNL1        0.0104
     10 C           8.9312   42.6582    9.2373 C.3     1  UNL1        0.0178
     11 C           8.4061   41.2192    9.2082 C.3     1  UNL1        0.0725
     12 C          10.3386   40.4862    7.9366 C.3     1  UNL1        0.0800
     13 N           8.8704   40.4719    8.0305 N.3     1  UNL1       -0.2647
     14 C           8.2786   41.0355    6.8189 C.3     1  UNL1        0.1582
     15 C           7.2904   40.0842    6.2356 C.2     1  UNL1        0.2357
     16 N           5.9197   40.1556    6.6111 N.am    1  UNL1       -0.3277
     17 O           7.6683   39.2218    5.4013 O.2     1  UNL1       -0.2738
     18 H           5.6227   40.8301    7.2640 H       1  UNL1        0.1450
     19 H           5.2685   39.5306    6.2181 H       1  UNL1        0.1450
     20 N          15.1053   39.8796    9.3548 N.pl3   1  UNL1       -0.2835
     21 H          15.9378   40.1588    9.8002 H       1  UNL1        0.1550
     22 C          13.6872   39.1920   11.7839 C.3     1  UNL1        0.0340
     23 C          14.0084   38.1740   10.7439 C.ar    1  UNL1        0.0099
     24 C          14.6970   38.5186    9.5688 C.ar    1  UNL1        0.1291
     25 C          14.5924   36.2577    8.8256 C.ar    1  UNL1        0.1003
     26 C          13.9072   35.8820    9.9811 C.ar    1  UNL1        0.0204
     27 C          13.6158   36.8491   10.9430 C.ar    1  UNL1        0.0001
     28 N          14.9681   37.5522    8.6463 N.ar    1  UNL1       -0.2294
@<TRIPOS>BOND
     1    22    23    1
     2    24    28   ar
     3    24    20    1
     4    25    26   ar
     5    27    23   ar
     6     2     6   ar
     7     3     7   ar
     8     4     1   ar
     9     5     3    1
    10     8     2    1
    11     8     9    1
    12     9    10    1
    13    10    11    1
    14    11    13    1
    15    12    13    1
    16    12     8    1
    17    14    13    1
    18    14    15    1
    19    15    16   am
    20    20     1    1
    21    23    24   ar
    22    25    28   ar
    23    26    27   ar
    24     1     6   ar
    25     2     7   ar
    26     3     4   ar
    27    15    17    2
    28    20    21    1
    29    16    18    1
    30    16    19    1
