@<TRIPOS>MOLECULE
MolPort-002-260-585 1120823 CSSS00132445507 MCULE-6139742585 PubChem-3853618 ZINC000001120823 ZINC01120823
 29 30 0 0 0
SMALL
GASTEIGER

@<TRIPOS>ATOM
      1 C          12.3524   40.6741    8.0075 C.ar    1  UNL1        0.1533
      2 C          13.3972   40.4834    8.9275 C.ar    1  UNL1        0.0528
      3 C          13.1628   39.8834   10.1666 C.ar    1  UNL1        0.0537
      4 C          11.8647   39.4747   10.4955 C.ar    1  UNL1        0.0162
      5 C          10.8168   39.6646    9.5942 C.ar    1  UNL1        0.0190
      6 C          11.0430   40.2818    8.3599 C.ar    1  UNL1        0.0848
      7 C          14.9817   38.5210   11.3488 C.2     1  UNL1        0.2503
      8 O          15.5357   38.3840   12.4713 O.2     1  UNL1       -0.2698
      9 N          14.2564   39.7300   11.0812 N.am    1  UNL1       -0.2803
     10 H          14.5378   40.5341   11.5746 H       1  UNL1        0.1552
     11 C          15.1096   37.4393   10.3518 C.ar    1  UNL1        0.0646
     12 C          16.2229   37.4445    9.5016 C.ar    1  UNL1        0.0117
     13 C          16.3936   36.4391    8.5480 C.ar    1  UNL1        0.0755
     14 C          15.4475   35.4135    8.4234 C.ar    1  UNL1        0.2909
     15 C          14.3206   35.4187    9.2548 C.ar    1  UNL1        0.0868
     16 C          14.1413   36.4211   10.2128 C.ar    1  UNL1        0.0681
     17 CL         12.6596   36.3961   11.1589 Cl      1  UNL1       -0.0819
     18 O          15.4234   33.0589    7.7938 O.co2   1  UNL1       -0.5760
     19 O          15.9515   34.6552    6.2773 O.2     1  UNL1        0.0415
     20 N          15.6198   34.3764    7.4484 N.pl3   1  UNL1        0.0809
     21 C           9.0378   41.5559    7.4470 C.2     1  UNL1        0.2257
     22 O           8.9975   42.3650    8.4147 O.2     1  UNL1       -0.2748
     23 N           9.9323   40.4391    7.4676 N.am    1  UNL1       -0.2816
     24 H           9.7716   39.7195    6.8152 H       1  UNL1        0.1549
     25 C           8.1044   41.7167    6.2931 C.3     1  UNL1        0.0768
     26 C           7.1613   40.5326    6.2023 C.3     1  UNL1        0.0096
     27 C           7.3098   43.0019    6.4243 C.3     1  UNL1        0.0096
     28 C          13.5183   42.2852    6.5291 C.3     1  UNL1        0.2525
     29 O          12.6066   41.2159    6.7422 O.3     1  UNL1       -0.4701
@<TRIPOS>UNITY_ATOM_ATTR
18 1
charge -1
20 1
charge 1
@<TRIPOS>BOND
     1    28    29    1
     2     1    29    1
     3     2     3   ar
     4     3     9    1
     5     7    11    1
     6    12    13   ar
     7    14    15   ar
     8    14    20    1
     9    16    17    1
    10    16    11   ar
    11     4     5   ar
    12     6    23    1
    13     6     1   ar
    14    25    21    1
    15    25    26    1
    16    25    27    1
    17     9     7   am
    18    20    18    1
    19    23    21   am
    20     1     2   ar
    21     3     4   ar
    22     7     8    2
    23    11    12   ar
    24    13    14   ar
    25    15    16   ar
    26     5     6   ar
    27    21    22    2
    28    20    19    2
    29     9    10    1
    30    23    24    1
@<TRIPOS>MOLECULE
MolPort-002-260-585 1120823 CSSS00132445507 MCULE-6139742585 PubChem-3853618 ZINC000001120823 ZINC01120823
 29 30 0 0 0
SMALL
GASTEIGER

@<TRIPOS>ATOM
      1 C           9.9249   41.5938   10.3800 C.ar    1  UNL1        0.1533
      2 C          11.1642   40.9794   10.6269 C.ar    1  UNL1        0.0528
      3 C          11.9046   40.4120    9.5875 C.ar    1  UNL1        0.0537
      4 C          11.3967   40.4516    8.2834 C.ar    1  UNL1        0.0162
      5 C          10.1641   41.0522    8.0254 C.ar    1  UNL1        0.0190
      6 C           9.4105   41.6050    9.0654 C.ar    1  UNL1        0.0848
      7 C          14.3656   39.8688    9.1291 C.2     1  UNL1        0.2503
      8 O          15.1925   38.9211    9.1908 O.2     1  UNL1       -0.2698
      9 N          13.1536   39.7768    9.8918 N.am    1  UNL1       -0.2803
     10 H          13.1825   39.2224   10.7048 H       1  UNL1        0.1552
     11 C          14.6809   41.0386    8.2848 C.ar    1  UNL1        0.0646
     12 C          13.7416   41.4424    7.3273 C.ar    1  UNL1        0.0117
     13 C          13.9891   42.5473    6.5106 C.ar    1  UNL1        0.0755
     14 C          15.1866   43.2640    6.6329 C.ar    1  UNL1        0.2909
     15 C          16.1388   42.8484    7.5720 C.ar    1  UNL1        0.0868
     16 C          15.8995   41.7434    8.3943 C.ar    1  UNL1        0.0681
     17 CL         17.1812   41.2423    9.4886 Cl      1  UNL1       -0.0819
     18 O          14.8136   44.5286    4.5829 O.co2   1  UNL1       -0.5760
     19 O          16.2438   45.2884    6.1653 O.2     1  UNL1        0.0415
     20 N          15.4443   44.4019    5.7994 N.pl3   1  UNL1        0.0809
     21 C           7.9177   43.6306    8.6834 C.2     1  UNL1        0.2257
     22 O           8.7366   44.4433    9.1948 O.2     1  UNL1       -0.2748
     23 N           8.1576   42.2210    8.7408 N.am    1  UNL1       -0.2816
     24 H           7.3997   41.6253    8.5409 H       1  UNL1        0.1549
     25 C           6.6519   44.1266    8.0667 C.3     1  UNL1        0.0768
     26 C           6.5417   43.6591    6.6282 C.3     1  UNL1        0.0096
     27 C           5.4495   43.6500    8.8589 C.3     1  UNL1        0.0096
     28 C           8.3221   41.5201   12.2685 C.3     1  UNL1        0.2525
     29 O           9.2196   42.2179   11.4154 O.3     1  UNL1       -0.4701
@<TRIPOS>UNITY_ATOM_ATTR
18 1
charge -1
20 1
charge 1
@<TRIPOS>BOND
     1    28    29    1
     2     1    29    1
     3     2     3   ar
     4     3     9    1
     5     7    11    1
     6    12    13   ar
     7    14    15   ar
     8    14    20    1
     9    16    17    1
    10    16    11   ar
    11     4     5   ar
    12     6    23    1
    13     6     1   ar
    14    25    21    1
    15    25    26    1
    16    25    27    1
    17     9     7   am
    18    20    18    1
    19    23    21   am
    20     1     2   ar
    21     3     4   ar
    22     7     8    2
    23    11    12   ar
    24    13    14   ar
    25    15    16   ar
    26     5     6   ar
    27    21    22    2
    28    20    19    2
    29     9    10    1
    30    23    24    1
@<TRIPOS>MOLECULE
MolPort-002-260-585 1120823 CSSS00132445507 MCULE-6139742585 PubChem-3853618 ZINC000001120823 ZINC01120823
 29 30 0 0 0
SMALL
GASTEIGER

@<TRIPOS>ATOM
      1 C          12.5588   40.2250    9.6598 C.ar    1  UNL1        0.1533
      2 C          11.5143   40.0674   10.5864 C.ar    1  UNL1        0.0528
      3 C          10.6422   41.1201   10.8720 C.ar    1  UNL1        0.0537
      4 C          10.8202   42.3511   10.2291 C.ar    1  UNL1        0.0162
      5 C          11.8577   42.5234    9.3124 C.ar    1  UNL1        0.0190
      6 C          12.7448   41.4781    9.0369 C.ar    1  UNL1        0.0848
      7 C           8.3525   41.6157   11.9082 C.2     1  UNL1        0.2503
      8 O           7.7801   41.7248   13.0245 O.2     1  UNL1       -0.2698
      9 N           9.6048   40.9182   11.8410 N.am    1  UNL1       -0.2803
     10 H           9.7678   40.2327   12.5286 H       1  UNL1        0.1552
     11 C           7.7082   42.1993   10.7145 C.ar    1  UNL1        0.0646
     12 C           8.3903   43.2003   10.0109 C.ar    1  UNL1        0.0117
     13 C           7.8273   43.7775    8.8712 C.ar    1  UNL1        0.0755
     14 C           6.5662   43.3675    8.4194 C.ar    1  UNL1        0.2909
     15 C           5.8704   42.3847    9.1343 C.ar    1  UNL1        0.0868
     16 C           6.4264   41.8008   10.2766 C.ar    1  UNL1        0.0681
     17 CL          5.4513   40.6338   11.1587 Cl      1  UNL1       -0.0819
     18 O           6.3748   43.5366    5.9954 O.co2   1  UNL1       -0.5760
     19 O           5.1214   44.8505    7.3478 O.2     1  UNL1        0.0415
     20 N           5.9849   43.9542    7.2472 N.pl3   1  UNL1        0.0809
     21 C          13.6484   42.4737    6.8760 C.2     1  UNL1        0.2257
     22 O          12.5065   42.7767    6.4324 O.2     1  UNL1       -0.2748
     23 N          13.7840   41.7069    8.0766 N.am    1  UNL1       -0.2816
     24 H          14.6635   41.3033    8.2579 H       1  UNL1        0.1549
     25 C          14.8757   42.8569    6.1174 C.3     1  UNL1        0.0768
     26 C          14.6060   44.0678    5.2452 C.3     1  UNL1        0.0096
     27 C          16.0213   43.1488    7.0676 C.3     1  UNL1        0.0096
     28 C          14.4764   38.7321   10.1442 C.3     1  UNL1        0.2525
     29 O          13.3879   39.1468    9.3298 O.3     1  UNL1       -0.4701
@<TRIPOS>UNITY_ATOM_ATTR
18 1
charge -1
20 1
charge 1
@<TRIPOS>BOND
     1    28    29    1
     2     1    29    1
     3     2     3   ar
     4     3     9    1
     5     7    11    1
     6    12    13   ar
     7    14    15   ar
     8    14    20    1
     9    16    17    1
    10    16    11   ar
    11     4     5   ar
    12     6    23    1
    13     6     1   ar
    14    25    21    1
    15    25    26    1
    16    25    27    1
    17     9     7   am
    18    20    18    1
    19    23    21   am
    20     1     2   ar
    21     3     4   ar
    22     7     8    2
    23    11    12   ar
    24    13    14   ar
    25    15    16   ar
    26     5     6   ar
    27    21    22    2
    28    20    19    2
    29     9    10    1
    30    23    24    1
@<TRIPOS>MOLECULE
MolPort-002-260-585 1120823 CSSS00132445507 MCULE-6139742585 PubChem-3853618 ZINC000001120823 ZINC01120823
 29 30 0 0 0
SMALL
GASTEIGER

@<TRIPOS>ATOM
      1 C          10.9912   40.2830    9.5979 C.ar    1  UNL1        0.1533
      2 C          12.0786   40.1803   10.4819 C.ar    1  UNL1        0.0528
      3 C          13.3435   39.8049   10.0243 C.ar    1  UNL1        0.0537
      4 C          13.5239   39.5199    8.6654 C.ar    1  UNL1        0.0162
      5 C          12.4511   39.6109    7.7781 C.ar    1  UNL1        0.0190
      6 C          11.1786   39.9683    8.2346 C.ar    1  UNL1        0.0848
      7 C          15.1149   38.4912   11.3276 C.2     1  UNL1        0.2503
      8 O          15.6460   38.4185   12.4670 O.2     1  UNL1       -0.2698
      9 N          14.4175   39.6926   10.9676 N.am    1  UNL1       -0.2803
     10 H          14.7051   40.5223   11.4127 H       1  UNL1        0.1552
     11 C          15.2401   37.3442   10.4061 C.ar    1  UNL1        0.0646
     12 C          16.4363   37.1887    9.6939 C.ar    1  UNL1        0.0117
     13 C          16.6070   36.1159    8.8168 C.ar    1  UNL1        0.0755
     14 C          15.5787   35.1828    8.6312 C.ar    1  UNL1        0.2909
     15 C          14.3723   35.3487    9.3226 C.ar    1  UNL1        0.0868
     16 C          14.1924   36.4196   10.2032 C.ar    1  UNL1        0.0681
     17 CL         12.6192   36.5975   10.9679 Cl      1  UNL1       -0.0819
     18 O          15.9164   34.2956    6.3862 O.co2   1  UNL1       -0.5760
     19 O          15.7484   32.9049    8.1650 O.2     1  UNL1        0.0415
     20 N          15.7501   34.0770    7.7345 N.pl3   1  UNL1        0.0809
     21 C          10.2839   40.2617    5.8701 C.2     1  UNL1        0.2257
     22 O          11.3879   40.6587    5.4051 O.2     1  UNL1       -0.2748
     23 N          10.1161   40.0592    7.2768 N.am    1  UNL1       -0.2816
     24 H           9.1951   39.9754    7.6144 H       1  UNL1        0.1549
     25 C           9.1153   40.0593    4.9635 C.3     1  UNL1        0.0768
     26 C           9.4702   39.1006    3.8434 C.3     1  UNL1        0.0096
     27 C           7.9235   39.5306    5.7386 C.3     1  UNL1        0.0096
     28 C           9.5915   41.7621   11.0100 C.3     1  UNL1        0.2525
     29 O           9.7425   40.7232   10.0518 O.3     1  UNL1       -0.4701
@<TRIPOS>UNITY_ATOM_ATTR
18 1
charge -1
20 1
charge 1
@<TRIPOS>BOND
     1    28    29    1
     2     1    29    1
     3     2     3   ar
     4     3     9    1
     5     7    11    1
     6    12    13   ar
     7    14    15   ar
     8    14    20    1
     9    16    17    1
    10    16    11   ar
    11     4     5   ar
    12     6    23    1
    13     6     1   ar
    14    25    21    1
    15    25    26    1
    16    25    27    1
    17     9     7   am
    18    20    18    1
    19    23    21   am
    20     1     2   ar
    21     3     4   ar
    22     7     8    2
    23    11    12   ar
    24    13    14   ar
    25    15    16   ar
    26     5     6   ar
    27    21    22    2
    28    20    19    2
    29     9    10    1
    30    23    24    1
@<TRIPOS>MOLECULE
MolPort-002-260-585 1120823 CSSS00132445507 MCULE-6139742585 PubChem-3853618 ZINC000001120823 ZINC01120823
 29 30 0 0 0
SMALL
GASTEIGER

@<TRIPOS>ATOM
      1 C          10.2588   39.9514    8.6245 C.ar    1  UNL1        0.1533
      2 C          11.5717   39.4923    8.8238 C.ar    1  UNL1        0.0528
      3 C          12.2837   39.8300    9.9767 C.ar    1  UNL1        0.0537
      4 C          11.6790   40.6447   10.9416 C.ar    1  UNL1        0.0162
      5 C          10.3785   41.1134   10.7529 C.ar    1  UNL1        0.0190
      6 C           9.6683   40.7934    9.5916 C.ar    1  UNL1        0.0848
      7 C          14.7327   39.6329    9.2517 C.2     1  UNL1        0.2503
      8 O          15.6761   38.8013    9.1866 O.2     1  UNL1       -0.2698
      9 N          13.6287   39.3557   10.1255 N.am    1  UNL1       -0.2803
     10 H          13.8130   38.7828   10.9046 H       1  UNL1        0.1552
     11 C          14.8057   40.8619    8.4365 C.ar    1  UNL1        0.0646
     12 C          13.7096   41.1927    7.6293 C.ar    1  UNL1        0.0117
     13 C          13.7265   42.3487    6.8465 C.ar    1  UNL1        0.0755
     14 C          14.8457   43.1912    6.8522 C.ar    1  UNL1        0.2909
     15 C          15.9532   42.8509    7.6388 C.ar    1  UNL1        0.0868
     16 C          15.9453   41.6956    8.4261 C.ar    1  UNL1        0.0681
     17 CL         17.4073   41.3018    9.3198 Cl      1  UNL1       -0.0819
     18 O          16.0096   45.1441    5.9732 O.co2   1  UNL1       -0.5760
     19 O          13.8504   44.7413    5.4235 O.2     1  UNL1        0.0415
     20 N          14.8668   44.3816    6.0532 N.pl3   1  UNL1        0.0809
     21 C           7.9777   42.6185    9.0551 C.2     1  UNL1        0.2257
     22 O           8.8379   43.5418    9.0596 O.2     1  UNL1       -0.2748
     23 N           8.3310   41.2912    9.4566 N.am    1  UNL1       -0.2816
     24 H           7.5949   40.6687    9.6566 H       1  UNL1        0.1549
     25 C           6.5601   42.9133    8.6915 C.3     1  UNL1        0.0768
     26 C           6.4840   43.5461    7.3154 C.3     1  UNL1        0.0096
     27 C           5.7258   41.6471    8.7254 C.3     1  UNL1        0.0096
     28 C           9.0672   38.2246    7.3057 C.3     1  UNL1        0.2525
     29 O           9.5281   39.5553    7.4983 O.3     1  UNL1       -0.4701
@<TRIPOS>UNITY_ATOM_ATTR
18 1
charge -1
20 1
charge 1
@<TRIPOS>BOND
     1    28    29    1
     2     1    29    1
     3     2     3   ar
     4     3     9    1
     5     7    11    1
     6    12    13   ar
     7    14    15   ar
     8    14    20    1
     9    16    17    1
    10    16    11   ar
    11     4     5   ar
    12     6    23    1
    13     6     1   ar
    14    25    21    1
    15    25    26    1
    16    25    27    1
    17     9     7   am
    18    20    18    1
    19    23    21   am
    20     1     2   ar
    21     3     4   ar
    22     7     8    2
    23    11    12   ar
    24    13    14   ar
    25    15    16   ar
    26     5     6   ar
    27    21    22    2
    28    20    19    2
    29     9    10    1
    30    23    24    1
@<TRIPOS>MOLECULE
MolPort-002-260-585 1120823 CSSS00132445507 MCULE-6139742585 PubChem-3853618 ZINC000001120823 ZINC01120823
 29 30 0 0 0
SMALL
GASTEIGER

@<TRIPOS>ATOM
      1 C          12.2291   40.6467    6.9893 C.ar    1  UNL1        0.1533
      2 C          11.7559   39.6342    7.8409 C.ar    1  UNL1        0.0528
      3 C          12.2719   39.4797    9.1293 C.ar    1  UNL1        0.0537
      4 C          13.2810   40.3437    9.5716 C.ar    1  UNL1        0.0162
      5 C          13.7651   41.3487    8.7336 C.ar    1  UNL1        0.0190
      6 C          13.2647   41.4956    7.4362 C.ar    1  UNL1        0.0848
      7 C          12.3593   37.1190   10.1202 C.2     1  UNL1        0.2503
      8 O          11.6128   36.1536   10.4308 O.2     1  UNL1       -0.2698
      9 N          11.7728   38.4181    9.9539 N.am    1  UNL1       -0.2803
     10 H          10.9453   38.5984   10.4560 H       1  UNL1        0.1552
     11 C          13.8062   36.8780    9.9508 C.ar    1  UNL1        0.0646
     12 C          14.2218   35.9932    8.9474 C.ar    1  UNL1        0.0117
     13 C          15.5790   35.7384    8.7418 C.ar    1  UNL1        0.0755
     14 C          16.5453   36.3600    9.5432 C.ar    1  UNL1        0.2909
     15 C          16.1327   37.2260   10.5635 C.ar    1  UNL1        0.0868
     16 C          14.7759   37.4875   10.7766 C.ar    1  UNL1        0.0681
     17 CL         14.3427   38.5233   12.1296 Cl      1  UNL1       -0.0819
     18 O          18.6763   36.9125    8.4970 O.co2   1  UNL1       -0.5760
     19 O          18.5036   35.1480    9.9054 O.2     1  UNL1        0.0415
     20 N          17.9407   36.1049    9.3339 N.pl3   1  UNL1        0.0809
     21 C          15.1394   43.0267    6.6498 C.2     1  UNL1        0.2257
     22 O          15.9075   42.7260    7.6049 O.2     1  UNL1       -0.2748
     23 N          13.7891   42.5536    6.6237 N.am    1  UNL1       -0.2816
     24 H          13.1693   42.9909    5.9960 H       1  UNL1        0.1549
     25 C          15.6107   43.9359    5.5637 C.3     1  UNL1        0.0768
     26 C          15.0099   45.3186    5.7287 C.3     1  UNL1        0.0096
     27 C          17.1248   44.0267    5.5628 C.3     1  UNL1        0.0096
     28 C          10.3364   41.3154    5.5362 C.3     1  UNL1        0.2525
     29 O          11.6616   40.8373    5.7240 O.3     1  UNL1       -0.4701
@<TRIPOS>UNITY_ATOM_ATTR
18 1
charge -1
20 1
charge 1
@<TRIPOS>BOND
     1    28    29    1
     2     1    29    1
     3     2     3   ar
     4     3     9    1
     5     7    11    1
     6    12    13   ar
     7    14    15   ar
     8    14    20    1
     9    16    17    1
    10    16    11   ar
    11     4     5   ar
    12     6    23    1
    13     6     1   ar
    14    25    21    1
    15    25    26    1
    16    25    27    1
    17     9     7   am
    18    20    18    1
    19    23    21   am
    20     1     2   ar
    21     3     4   ar
    22     7     8    2
    23    11    12   ar
    24    13    14   ar
    25    15    16   ar
    26     5     6   ar
    27    21    22    2
    28    20    19    2
    29     9    10    1
    30    23    24    1
@<TRIPOS>MOLECULE
MolPort-002-260-585 1120823 CSSS00132445507 MCULE-6139742585 PubChem-3853618 ZINC000001120823 ZINC01120823
 29 30 0 0 0
SMALL
GASTEIGER

@<TRIPOS>ATOM
      1 C          14.0232   38.8941    9.9788 C.ar    1  UNL1        0.1533
      2 C          12.7447   39.3271    9.5886 C.ar    1  UNL1        0.0528
      3 C          11.7038   38.4153    9.4003 C.ar    1  UNL1        0.0537
      4 C          11.9447   37.0501    9.5966 C.ar    1  UNL1        0.0162
      5 C          13.2114   36.6059    9.9770 C.ar    1  UNL1        0.0190
      6 C          14.2616   37.5132   10.1487 C.ar    1  UNL1        0.0848
      7 C          10.1104   40.2425    8.5729 C.2     1  UNL1        0.2503
      8 O           8.9314   40.6602    8.7185 O.2     1  UNL1       -0.2698
      9 N          10.4221   38.9025    8.9807 N.am    1  UNL1       -0.2803
     10 H           9.6823   38.2529    8.9715 H       1  UNL1        0.1552
     11 C          11.1195   41.1428    7.9799 C.ar    1  UNL1        0.0646
     12 C          11.6157   42.1945    8.7608 C.ar    1  UNL1        0.0117
     13 C          12.5771   43.0679    8.2487 C.ar    1  UNL1        0.0755
     14 C          13.0538   42.9080    6.9411 C.ar    1  UNL1        0.2909
     15 C          12.5420   41.8728    6.1489 C.ar    1  UNL1        0.0868
     16 C          11.5794   40.9933    6.6533 C.ar    1  UNL1        0.0681
     17 CL         10.9329   39.7728    5.5653 Cl      1  UNL1       -0.0819
     18 O          13.7636   44.5719    5.3075 O.co2   1  UNL1       -0.5760
     19 O          15.1707   43.8846    6.9428 O.2     1  UNL1        0.0415
     20 N          14.0440   43.7997    6.4114 N.pl3   1  UNL1        0.0809
     21 C          16.6883   36.8842    9.7096 C.2     1  UNL1        0.2257
     22 O          16.5762   36.9643    8.4552 O.2     1  UNL1       -0.2748
     23 N          15.5384   37.0026   10.5531 N.am    1  UNL1       -0.2816
     24 H          15.6320   36.7092   11.4882 H       1  UNL1        0.1549
     25 C          18.0163   36.5994   10.3291 C.3     1  UNL1        0.0768
     26 C          18.8447   35.7064    9.4257 C.3     1  UNL1        0.0096
     27 C          18.7636   37.8898   10.6068 C.3     1  UNL1        0.0096
     28 C          15.5894   40.6586    9.2209 C.3     1  UNL1        0.2525
     29 O          15.0435   39.8190   10.2294 O.3     1  UNL1       -0.4701
@<TRIPOS>UNITY_ATOM_ATTR
18 1
charge -1
20 1
charge 1
@<TRIPOS>BOND
     1    28    29    1
     2     1    29    1
     3     2     3   ar
     4     3     9    1
     5     7    11    1
     6    12    13   ar
     7    14    15   ar
     8    14    20    1
     9    16    17    1
    10    16    11   ar
    11     4     5   ar
    12     6    23    1
    13     6     1   ar
    14    25    21    1
    15    25    26    1
    16    25    27    1
    17     9     7   am
    18    20    18    1
    19    23    21   am
    20     1     2   ar
    21     3     4   ar
    22     7     8    2
    23    11    12   ar
    24    13    14   ar
    25    15    16   ar
    26     5     6   ar
    27    21    22    2
    28    20    19    2
    29     9    10    1
    30    23    24    1
@<TRIPOS>MOLECULE
MolPort-002-260-585 1120823 CSSS00132445507 MCULE-6139742585 PubChem-3853618 ZINC000001120823 ZINC01120823
 29 30 0 0 0
SMALL
GASTEIGER

@<TRIPOS>ATOM
      1 C          13.1702   41.0191    8.1519 C.ar    1  UNL1        0.1533
      2 C          12.2013   40.0179    7.9693 C.ar    1  UNL1        0.0528
      3 C          11.4184   39.9780    6.8136 C.ar    1  UNL1        0.0537
      4 C          11.5996   40.9568    5.8289 C.ar    1  UNL1        0.0162
      5 C          12.5531   41.9608    6.0008 C.ar    1  UNL1        0.0190
      6 C          13.3265   42.0158    7.1645 C.ar    1  UNL1        0.0848
      7 C           9.1349   38.9261    7.3048 C.2     1  UNL1        0.2503
      8 O           8.5920   37.8122    7.5290 O.2     1  UNL1       -0.2698
      9 N          10.4275   38.9500    6.6820 N.am    1  UNL1       -0.2803
     10 H          10.6567   38.1844    6.1072 H       1  UNL1        0.1552
     11 C           8.4163   40.1600    7.6811 C.ar    1  UNL1        0.0646
     12 C           8.9866   40.9941    8.6513 C.ar    1  UNL1        0.0117
     13 C           8.3505   42.1762    9.0353 C.ar    1  UNL1        0.0755
     14 C           7.1266   42.5408    8.4593 C.ar    1  UNL1        0.2909
     15 C           6.5412   41.6971    7.5070 C.ar    1  UNL1        0.0868
     16 C           7.1710   40.5117    7.1161 C.ar    1  UNL1        0.0681
     17 CL          6.3282   39.4726    5.9754 Cl      1  UNL1       -0.0819
     18 O           5.1344   43.7491    9.1748 O.co2   1  UNL1       -0.5760
     19 O           7.1025   44.8318    8.8899 O.2     1  UNL1        0.0415
     20 N           6.4709   43.7556    8.8471 N.pl3   1  UNL1        0.0809
     21 C          15.7137   42.8681    7.3928 C.2     1  UNL1        0.2257
     22 O          16.1870   41.7338    7.6791 O.2     1  UNL1       -0.2748
     23 N          14.3001   43.0612    7.2819 N.am    1  UNL1       -0.2816
     24 H          13.9691   43.9883    7.2866 H       1  UNL1        0.1549
     25 C          16.6213   44.0420    7.2291 C.3     1  UNL1        0.0768
     26 C          18.0001   43.5912    6.7868 C.3     1  UNL1        0.0096
     27 C          16.0500   45.0223    6.2226 C.3     1  UNL1        0.0096
     28 C          13.9013   40.0309   10.3036 C.3     1  UNL1        0.2525
     29 O          13.9960   41.0145    9.2820 O.3     1  UNL1       -0.4701
@<TRIPOS>UNITY_ATOM_ATTR
18 1
charge -1
20 1
charge 1
@<TRIPOS>BOND
     1    28    29    1
     2     1    29    1
     3     2     3   ar
     4     3     9    1
     5     7    11    1
     6    12    13   ar
     7    14    15   ar
     8    14    20    1
     9    16    17    1
    10    16    11   ar
    11     4     5   ar
    12     6    23    1
    13     6     1   ar
    14    25    21    1
    15    25    26    1
    16    25    27    1
    17     9     7   am
    18    20    18    1
    19    23    21   am
    20     1     2   ar
    21     3     4   ar
    22     7     8    2
    23    11    12   ar
    24    13    14   ar
    25    15    16   ar
    26     5     6   ar
    27    21    22    2
    28    20    19    2
    29     9    10    1
    30    23    24    1
@<TRIPOS>MOLECULE
MolPort-002-260-585 1120823 CSSS00132445507 MCULE-6139742585 PubChem-3853618 ZINC000001120823 ZINC01120823
 29 30 0 0 0
SMALL
GASTEIGER

@<TRIPOS>ATOM
      1 C           9.6559   40.3500    8.1547 C.ar    1  UNL1        0.1533
      2 C          10.8680   39.8044    8.6102 C.ar    1  UNL1        0.0528
      3 C          11.6883   40.5119    9.4916 C.ar    1  UNL1        0.0537
      4 C          11.2966   41.7865    9.9186 C.ar    1  UNL1        0.0162
      5 C          10.0990   42.3431    9.4684 C.ar    1  UNL1        0.0190
      6 C           9.2835   41.6463    8.5713 C.ar    1  UNL1        0.0848
      7 C          14.1797   39.9842    9.2154 C.2     1  UNL1        0.2503
      8 O          15.0152   39.0587    9.3917 O.2     1  UNL1       -0.2698
      9 N          12.9264   39.9231    9.9115 N.am    1  UNL1       -0.2803
     10 H          12.9155   39.4275   10.7622 H       1  UNL1        0.1552
     11 C          14.5269   41.0977    8.3099 C.ar    1  UNL1        0.0646
     12 C          13.5830   41.5013    7.3569 C.ar    1  UNL1        0.0117
     13 C          13.8603   42.5547    6.4835 C.ar    1  UNL1        0.0755
     14 C          15.0924   43.2186    6.5438 C.ar    1  UNL1        0.2909
     15 C          16.0481   42.8018    7.4787 C.ar    1  UNL1        0.0868
     16 C          15.7793   41.7482    8.3575 C.ar    1  UNL1        0.0681
     17 CL         17.0641   41.2377    9.4436 Cl      1  UNL1       -0.0819
     18 O          16.3605   45.2180    5.9648 O.co2   1  UNL1       -0.5760
     19 O          14.7470   44.4328    4.5839 O.2     1  UNL1        0.0415
     20 N          15.3809   44.3036    5.6519 N.pl3   1  UNL1        0.0809
     21 C           6.8282   42.2388    8.8840 C.2     1  UNL1        0.2257
     22 O           6.6602   41.4263    9.8349 O.2     1  UNL1       -0.2748
     23 N           8.0580   42.2605    8.1526 N.am    1  UNL1       -0.2816
     24 H           8.0627   42.7365    7.2908 H       1  UNL1        0.1549
     25 C           5.7193   43.1467    8.4660 C.3     1  UNL1        0.0768
     26 C           4.5422   43.0207    9.4138 C.3     1  UNL1        0.0096
     27 C           6.1958   44.5859    8.4215 C.3     1  UNL1        0.0096
     28 C           9.0667   38.2583    6.9638 C.3     1  UNL1        0.2525
     29 O           8.8079   39.6086    7.3239 O.3     1  UNL1       -0.4701
@<TRIPOS>UNITY_ATOM_ATTR
18 1
charge -1
20 1
charge 1
@<TRIPOS>BOND
     1    28    29    1
     2     1    29    1
     3     2     3   ar
     4     3     9    1
     5     7    11    1
     6    12    13   ar
     7    14    15   ar
     8    14    20    1
     9    16    17    1
    10    16    11   ar
    11     4     5   ar
    12     6    23    1
    13     6     1   ar
    14    25    21    1
    15    25    26    1
    16    25    27    1
    17     9     7   am
    18    20    18    1
    19    23    21   am
    20     1     2   ar
    21     3     4   ar
    22     7     8    2
    23    11    12   ar
    24    13    14   ar
    25    15    16   ar
    26     5     6   ar
    27    21    22    2
    28    20    19    2
    29     9    10    1
    30    23    24    1
@<TRIPOS>MOLECULE
MolPort-002-260-585 1120823 CSSS00132445507 MCULE-6139742585 PubChem-3853618 ZINC000001120823 ZINC01120823
 29 30 0 0 0
SMALL
GASTEIGER

@<TRIPOS>ATOM
      1 C           9.7786   42.4501    9.4135 C.ar    1  UNL1        0.1533
      2 C          10.8469   41.5445    9.5276 C.ar    1  UNL1        0.0528
      3 C          10.7690   40.2674    8.9680 C.ar    1  UNL1        0.0537
      4 C           9.6043   39.8855    8.2913 C.ar    1  UNL1        0.0162
      5 C           8.5332   40.7724    8.1770 C.ar    1  UNL1        0.0190
      6 C           8.5992   42.0455    8.7516 C.ar    1  UNL1        0.0848
      7 C          13.1057   39.3913    8.3896 C.2     1  UNL1        0.2503
      8 O          13.7486   38.3170    8.2547 O.2     1  UNL1       -0.2698
      9 N          11.8762   39.3705    9.1292 N.am    1  UNL1       -0.2803
     10 H          11.7835   38.6709    9.8156 H       1  UNL1        0.1552
     11 C          13.6473   40.6283    7.7920 C.ar    1  UNL1        0.0646
     12 C          14.7525   41.2352    8.4023 C.ar    1  UNL1        0.0117
     13 C          15.3066   42.4012    7.8708 C.ar    1  UNL1        0.0755
     14 C          14.7584   42.9855    6.7216 C.ar    1  UNL1        0.2909
     15 C          13.6383   42.3955    6.1229 C.ar    1  UNL1        0.0868
     16 C          13.0768   41.2276    6.6479 C.ar    1  UNL1        0.0681
     17 CL         11.6243   40.5996    5.8819 Cl      1  UNL1       -0.0819
     18 O          14.7989   44.7354    5.0254 O.co2   1  UNL1       -0.5760
     19 O          16.3040   44.7308    6.7169 O.2     1  UNL1        0.0415
     20 N          15.3258   44.1809    6.1692 N.pl3   1  UNL1        0.0809
     21 C           6.1227   42.6022    8.9358 C.2     1  UNL1        0.2257
     22 O           5.7778   41.4073    9.1503 O.2     1  UNL1       -0.2748
     23 N           7.4748   42.9199    8.5916 N.am    1  UNL1       -0.2816
     24 H           7.6470   43.8126    8.2138 H       1  UNL1        0.1549
     25 C           5.1077   43.6962    8.9750 C.3     1  UNL1        0.0768
     26 C           5.1318   44.4912    7.6837 C.3     1  UNL1        0.0096
     27 C           3.7203   43.1293    9.2075 C.3     1  UNL1        0.0096
     28 C           8.7954   44.4489   10.4992 C.3     1  UNL1        0.2525
     29 O           9.8891   43.7505    9.9195 O.3     1  UNL1       -0.4701
@<TRIPOS>UNITY_ATOM_ATTR
18 1
charge -1
20 1
charge 1
@<TRIPOS>BOND
     1    28    29    1
     2     1    29    1
     3     2     3   ar
     4     3     9    1
     5     7    11    1
     6    12    13   ar
     7    14    15   ar
     8    14    20    1
     9    16    17    1
    10    16    11   ar
    11     4     5   ar
    12     6    23    1
    13     6     1   ar
    14    25    21    1
    15    25    26    1
    16    25    27    1
    17     9     7   am
    18    20    18    1
    19    23    21   am
    20     1     2   ar
    21     3     4   ar
    22     7     8    2
    23    11    12   ar
    24    13    14   ar
    25    15    16   ar
    26     5     6   ar
    27    21    22    2
    28    20    19    2
    29     9    10    1
    30    23    24    1
