@<TRIPOS>MOLECULE
MolPort-001-631-060 4778425 CSSS00121599782 MCULE-7263481753 PubChem-4613212 ZINC000004778425 ZINC04778425
 27 29 0 0 0
SMALL
GASTEIGER

@<TRIPOS>ATOM
      1 C          11.1687   41.1879    6.2346 C.ar    1  UNL1        0.0568
      2 C           9.9317   41.6870    6.6632 C.ar    1  UNL1        0.0414
      3 C           8.7413   41.0046    6.3681 C.ar    1  UNL1        0.1392
      4 C           8.7964   39.8169    5.6324 C.ar    1  UNL1        0.0369
      5 C          10.0253   39.3131    5.1977 C.ar    1  UNL1        0.0033
      6 C          11.2073   39.9955    5.4982 C.ar    1  UNL1        0.0047
      7 C          12.4118   41.9073    6.5621 C.2     1  UNL1        0.2518
      8 N          12.9514   42.8555    5.6319 N.am    1  UNL1       -0.2480
      9 O          12.9933   41.6887    7.6601 O.2     1  UNL1       -0.2697
     10 H          12.4661   42.9884    4.7857 H       1  UNL1        0.1581
     11 C          14.1405   43.6234    5.8385 C.ar    1  UNL1        0.2619
     12 N          16.0884   44.1482    6.3871 N.ar    1  UNL1       -0.1497
     13 N          15.5216   45.2234    5.8674 N.ar    1  UNL1       -0.0438
     14 N          14.2826   44.9241    5.5107 N.ar    1  UNL1       -0.0918
     15 N          15.2602   43.1176    6.3857 N.ar    1  UNL1       -0.1137
     16 C          17.4578   44.1029    6.8699 C.3     1  UNL1        0.1514
     17 C          17.4724   43.9590    8.3827 C.3     1  UNL1        0.0283
     18 C          18.2174   41.5869    8.2021 C.3     1  UNL1        0.0001
     19 C          17.1752   42.5248    8.7817 C.3     1  UNL1        0.0021
     20 O           7.4961   41.4836    6.7909 O.3     1  UNL1       -0.4706
     21 C           7.1880   41.7756    8.1518 C.3     1  UNL1        0.2320
     22 C           5.9993   42.6728    8.2430 C.ar    1  UNL1        0.0212
     23 C           5.9721   43.8809    7.5368 C.ar    1  UNL1       -0.0007
     24 C           4.8526   44.7146    7.6191 C.ar    1  UNL1       -0.0002
     25 C           3.7593   44.3415    8.4073 C.ar    1  UNL1       -0.0000
     26 C           3.7856   43.1352    9.1138 C.ar    1  UNL1       -0.0002
     27 C           4.9051   42.3016    9.0320 C.ar    1  UNL1       -0.0007
@<TRIPOS>BOND
     1    18    19    1
     2    19    17    1
     3    17    16    1
     4    16    12    1
     5    11    14   ar
     6    11     8    1
     7     7     1    1
     8     2     3   ar
     9     3    20    1
    10    21    20    1
    11    21    22    1
    12    23    24   ar
    13    25    26   ar
    14    27    22   ar
    15     4     5   ar
    16     6     1   ar
    17    12    13   ar
    18    12    15   ar
    19     8     7   am
    20    11    15   ar
    21     7     9    2
    22     1     2   ar
    23     3     4   ar
    24    22    23   ar
    25    24    25   ar
    26    26    27   ar
    27     5     6   ar
    28    13    14   ar
    29     8    10    1
@<TRIPOS>MOLECULE
MolPort-001-631-060 4778425 CSSS00121599782 MCULE-7263481753 PubChem-4613212 ZINC000004778425 ZINC04778425
 27 29 0 0 0
SMALL
GASTEIGER

@<TRIPOS>ATOM
      1 C          11.0186   41.2642    6.5561 C.ar    1  UNL1        0.0568
      2 C           9.7993   41.9037    6.8160 C.ar    1  UNL1        0.0414
      3 C           8.5810   41.2414    6.5993 C.ar    1  UNL1        0.1392
      4 C           8.5906   39.9308    6.1124 C.ar    1  UNL1        0.0369
      5 C           9.8016   39.2859    5.8470 C.ar    1  UNL1        0.0033
      6 C          11.0114   39.9497    6.0686 C.ar    1  UNL1        0.0047
      7 C          12.2904   41.9663    6.8002 C.2     1  UNL1        0.2518
      8 N          12.9657   42.6137    5.7137 N.am    1  UNL1       -0.2480
      9 O          12.7772   41.9978    7.9635 O.2     1  UNL1       -0.2697
     10 H          12.5507   42.5573    4.8227 H       1  UNL1        0.1581
     11 C          14.1959   43.3353    5.8244 C.ar    1  UNL1        0.2619
     12 N          15.9949   44.0762    6.5892 N.ar    1  UNL1       -0.1497
     13 N          15.8355   44.5945    5.3836 N.ar    1  UNL1       -0.0438
     14 N          14.7008   44.1454    4.8713 N.ar    1  UNL1       -0.0918
     15 N          14.9919   43.2755    6.9068 N.ar    1  UNL1       -0.1137
     16 C          17.1435   44.3343    7.4405 C.3     1  UNL1        0.1514
     17 C          17.0992   43.4323    8.6628 C.3     1  UNL1        0.0283
     18 C          17.1351   41.0292    9.3250 C.3     1  UNL1        0.0001
     19 C          17.6354   42.0531    8.3234 C.3     1  UNL1        0.0021
     20 O           7.3526   41.8605    6.8571 O.3     1  UNL1       -0.4706
     21 C           7.1883   42.9165    7.8005 C.3     1  UNL1        0.2320
     22 C           6.9539   42.3697    9.1690 C.ar    1  UNL1        0.0212
     23 C           5.7123   41.8178    9.5045 C.ar    1  UNL1       -0.0007
     24 C           5.5000   41.2994   10.7856 C.ar    1  UNL1       -0.0002
     25 C           6.5286   41.3322   11.7325 C.ar    1  UNL1       -0.0000
     26 C           7.7693   41.8839   11.3987 C.ar    1  UNL1       -0.0002
     27 C           7.9816   42.4028   10.1179 C.ar    1  UNL1       -0.0007
@<TRIPOS>BOND
     1    18    19    1
     2    19    17    1
     3    17    16    1
     4    16    12    1
     5    11    14   ar
     6    11     8    1
     7     7     1    1
     8     2     3   ar
     9     3    20    1
    10    21    20    1
    11    21    22    1
    12    23    24   ar
    13    25    26   ar
    14    27    22   ar
    15     4     5   ar
    16     6     1   ar
    17    12    13   ar
    18    12    15   ar
    19     8     7   am
    20    11    15   ar
    21     7     9    2
    22     1     2   ar
    23     3     4   ar
    24    22    23   ar
    25    24    25   ar
    26    26    27   ar
    27     5     6   ar
    28    13    14   ar
    29     8    10    1
@<TRIPOS>MOLECULE
MolPort-001-631-060 4778425 CSSS00121599782 MCULE-7263481753 PubChem-4613212 ZINC000004778425 ZINC04778425
 27 29 0 0 0
SMALL
GASTEIGER

@<TRIPOS>ATOM
      1 C          15.1063   43.0389    6.7736 C.ar    1  UNL1        0.0568
      2 C          15.5512   42.2494    7.8421 C.ar    1  UNL1        0.0414
      3 C          16.8910   42.2934    8.2578 C.ar    1  UNL1        0.1392
      4 C          17.7885   43.1321    7.5901 C.ar    1  UNL1        0.0369
      5 C          17.3548   43.9208    6.5211 C.ar    1  UNL1        0.0033
      6 C          16.0184   43.8751    6.1146 C.ar    1  UNL1        0.0047
      7 C          13.6944   42.9927    6.3557 C.2     1  UNL1        0.2518
      8 N          12.8670   41.8953    6.7639 N.am    1  UNL1       -0.2480
      9 O          13.2193   43.9199    5.6444 O.2     1  UNL1       -0.2697
     10 H          13.2833   41.1925    7.3135 H       1  UNL1        0.1581
     11 C          11.4834   41.7427    6.4344 C.ar    1  UNL1        0.2619
     12 N           9.3988   41.7399    6.5928 N.ar    1  UNL1       -0.1497
     13 N           9.7024   41.3331    5.3722 N.ar    1  UNL1       -0.0438
     14 N          11.0192   41.3216    5.2400 N.ar    1  UNL1       -0.0918
     15 N          10.4855   42.0130    7.2947 N.ar    1  UNL1       -0.1137
     16 C           8.0407   41.8938    7.0852 C.3     1  UNL1        0.1514
     17 C           7.2852   42.8940    6.2259 C.3     1  UNL1        0.0283
     18 C           7.3344   44.2297    8.3302 C.3     1  UNL1        0.0001
     19 C           6.5220   43.8733    7.0995 C.3     1  UNL1        0.0021
     20 O          17.3545   41.5165    9.3257 O.3     1  UNL1       -0.4706
     21 C          17.2398   40.0963    9.3711 C.3     1  UNL1        0.2320
     22 C          16.0729   39.6875   10.2064 C.ar    1  UNL1        0.0212
     23 C          14.7733   40.0346    9.8200 C.ar    1  UNL1       -0.0007
     24 C          13.6824   39.6424   10.6019 C.ar    1  UNL1       -0.0002
     25 C          13.8896   38.9029   11.7706 C.ar    1  UNL1       -0.0000
     26 C          15.1876   38.5561   12.1580 C.ar    1  UNL1       -0.0002
     27 C          16.2786   38.9485   11.3766 C.ar    1  UNL1       -0.0007
@<TRIPOS>BOND
     1    18    19    1
     2    19    17    1
     3    17    16    1
     4    16    12    1
     5    11    14   ar
     6    11     8    1
     7     7     1    1
     8     2     3   ar
     9     3    20    1
    10    21    20    1
    11    21    22    1
    12    23    24   ar
    13    25    26   ar
    14    27    22   ar
    15     4     5   ar
    16     6     1   ar
    17    12    13   ar
    18    12    15   ar
    19     8     7   am
    20    11    15   ar
    21     7     9    2
    22     1     2   ar
    23     3     4   ar
    24    22    23   ar
    25    24    25   ar
    26    26    27   ar
    27     5     6   ar
    28    13    14   ar
    29     8    10    1
@<TRIPOS>MOLECULE
MolPort-001-631-060 4778425 CSSS00121599782 MCULE-7263481753 PubChem-4613212 ZINC000004778425 ZINC04778425
 27 29 0 0 0
SMALL
GASTEIGER

@<TRIPOS>ATOM
      1 C           9.7540   41.7503    9.8660 C.ar    1  UNL1        0.0568
      2 C          10.6023   42.2793    8.8844 C.ar    1  UNL1        0.0414
      3 C          11.9533   41.9033    8.8249 C.ar    1  UNL1        0.1392
      4 C          12.4537   40.9950    9.7625 C.ar    1  UNL1        0.0369
      5 C          11.6162   40.4646   10.7473 C.ar    1  UNL1        0.0033
      6 C          10.2710   40.8402   10.7987 C.ar    1  UNL1        0.0047
      7 C           8.3350   42.1436    9.9093 C.2     1  UNL1        0.2518
      8 N           7.3911   41.3255   10.6132 N.am    1  UNL1       -0.2480
      9 O           7.9578   43.1991    9.3306 O.2     1  UNL1       -0.2697
     10 H           7.7309   40.5083   11.0443 H       1  UNL1        0.1581
     11 C           5.9937   41.6052   10.7374 C.ar    1  UNL1        0.2619
     12 N           4.0156   41.5499   11.4116 N.ar    1  UNL1       -0.1497
     13 N           4.0733   42.4328   10.4294 N.ar    1  UNL1       -0.0438
     14 N           5.3160   42.4902    9.9778 N.ar    1  UNL1       -0.0918
     15 N           5.1990   41.0078   11.6433 N.ar    1  UNL1       -0.1137
     16 C           2.8082   41.2405   12.1578 C.3     1  UNL1        0.1514
     17 C           2.0497   42.5186   12.4749 C.3     1  UNL1        0.0283
     18 C           0.1059   43.4933   13.6940 C.3     1  UNL1        0.0001
     19 C           0.9212   42.2372   13.4506 C.3     1  UNL1        0.0021
     20 O          12.8160   42.4164    7.8495 O.3     1  UNL1       -0.4706
     21 C          13.8833   41.6675    7.2731 C.3     1  UNL1        0.2320
     22 C          15.1974   42.3111    7.5653 C.ar    1  UNL1        0.0212
     23 C          15.5411   43.5218    6.9531 C.ar    1  UNL1       -0.0007
     24 C          16.7703   44.1251    7.2363 C.ar    1  UNL1       -0.0002
     25 C          17.6571   43.5187    8.1317 C.ar    1  UNL1       -0.0000
     26 C          17.3152   42.3088    8.7434 C.ar    1  UNL1       -0.0002
     27 C          16.0862   41.7051    8.4601 C.ar    1  UNL1       -0.0007
@<TRIPOS>BOND
     1    18    19    1
     2    19    17    1
     3    17    16    1
     4    16    12    1
     5    11    14   ar
     6    11     8    1
     7     7     1    1
     8     2     3   ar
     9     3    20    1
    10    21    20    1
    11    21    22    1
    12    23    24   ar
    13    25    26   ar
    14    27    22   ar
    15     4     5   ar
    16     6     1   ar
    17    12    13   ar
    18    12    15   ar
    19     8     7   am
    20    11    15   ar
    21     7     9    2
    22     1     2   ar
    23     3     4   ar
    24    22    23   ar
    25    24    25   ar
    26    26    27   ar
    27     5     6   ar
    28    13    14   ar
    29     8    10    1
@<TRIPOS>MOLECULE
MolPort-001-631-060 4778425 CSSS00121599782 MCULE-7263481753 PubChem-4613212 ZINC000004778425 ZINC04778425
 27 29 0 0 0
SMALL
GASTEIGER

@<TRIPOS>ATOM
      1 C           5.4728   41.6717   10.4704 C.ar    1  UNL1        0.0568
      2 C           5.0736   42.8790    9.8823 C.ar    1  UNL1        0.0414
      3 C           3.7801   43.0292    9.3588 C.ar    1  UNL1        0.1392
      4 C           2.8862   41.9560    9.4224 C.ar    1  UNL1        0.0369
      5 C           3.2763   40.7468   10.0041 C.ar    1  UNL1        0.0033
      6 C           4.5647   40.6051   10.5269 C.ar    1  UNL1        0.0047
      7 C           6.8293   41.5316   11.0277 C.2     1  UNL1        0.2518
      8 N           7.9270   41.2224   10.1588 N.am    1  UNL1       -0.2480
      9 O           7.0193   41.6880   12.2650 O.2     1  UNL1       -0.2697
     10 H           7.7293   41.1036    9.2017 H       1  UNL1        0.1581
     11 C           9.2874   41.0730   10.5753 C.ar    1  UNL1        0.2619
     12 N          11.3598   40.8053   10.5112 N.ar    1  UNL1       -0.1497
     13 N          11.0170   40.9296   11.7818 N.ar    1  UNL1       -0.0438
     14 N           9.7065   41.0989   11.8571 N.ar    1  UNL1       -0.0918
     15 N          10.3068   40.8934    9.7165 N.ar    1  UNL1       -0.1137
     16 C          12.7257   40.6247   10.0507 C.3     1  UNL1        0.1514
     17 C          13.1605   39.1839   10.2620 C.3     1  UNL1        0.0283
     18 C          14.4645   37.6334   11.7146 C.3     1  UNL1        0.0001
     19 C          14.0947   39.0816   11.4543 C.3     1  UNL1        0.0021
     20 O           3.3602   44.2282    8.7715 O.3     1  UNL1       -0.4706
     21 C           4.0933   44.9017    7.7512 C.3     1  UNL1        0.2320
     22 C           5.4551   44.3103    7.6021 C.ar    1  UNL1        0.0212
     23 C           5.6935   43.3236    6.6385 C.ar    1  UNL1       -0.0007
     24 C           6.9732   42.7781    6.4972 C.ar    1  UNL1       -0.0002
     25 C           8.0157   43.2184    7.3187 C.ar    1  UNL1       -0.0000
     26 C           7.7786   44.2036    8.2822 C.ar    1  UNL1       -0.0002
     27 C           6.4990   44.7489    8.4240 C.ar    1  UNL1       -0.0007
@<TRIPOS>BOND
     1    18    19    1
     2    19    17    1
     3    17    16    1
     4    16    12    1
     5    11    14   ar
     6    11     8    1
     7     7     1    1
     8     2     3   ar
     9     3    20    1
    10    21    20    1
    11    21    22    1
    12    23    24   ar
    13    25    26   ar
    14    27    22   ar
    15     4     5   ar
    16     6     1   ar
    17    12    13   ar
    18    12    15   ar
    19     8     7   am
    20    11    15   ar
    21     7     9    2
    22     1     2   ar
    23     3     4   ar
    24    22    23   ar
    25    24    25   ar
    26    26    27   ar
    27     5     6   ar
    28    13    14   ar
    29     8    10    1
@<TRIPOS>MOLECULE
MolPort-001-631-060 4778425 CSSS00121599782 MCULE-7263481753 PubChem-4613212 ZINC000004778425 ZINC04778425
 27 29 0 0 0
SMALL
GASTEIGER

@<TRIPOS>ATOM
      1 C          10.7885   41.6450   10.0283 C.ar    1  UNL1        0.0568
      2 C          11.6437   41.7339    8.9221 C.ar    1  UNL1        0.0414
      3 C          12.8288   40.9839    8.8689 C.ar    1  UNL1        0.1392
      4 C          13.1574   40.1450    9.9381 C.ar    1  UNL1        0.0369
      5 C          12.3125   40.0523   11.0472 C.ar    1  UNL1        0.0033
      6 C          11.1319   40.7989   11.0922 C.ar    1  UNL1        0.0047
      7 C           9.5412   42.4279   10.0656 C.2     1  UNL1        0.2518
      8 N           8.7191   42.5127    8.8941 N.am    1  UNL1       -0.2480
      9 O           9.2006   43.0166   11.1281 O.2     1  UNL1       -0.2697
     10 H           9.0286   42.0417    8.0868 H       1  UNL1        0.1581
     11 C           7.4838   43.2289    8.8076 C.ar    1  UNL1        0.2619
     12 N           5.4359   43.6489    8.7842 N.ar    1  UNL1       -0.1497
     13 N           6.0752   44.7912    8.5997 N.ar    1  UNL1       -0.0438
     14 N           7.3781   44.5586    8.6072 N.ar    1  UNL1       -0.0918
     15 N           6.2798   42.6408    8.9241 N.ar    1  UNL1       -0.1137
     16 C           3.9899   43.5275    8.8530 C.3     1  UNL1        0.1514
     17 C           3.5924   42.7234   10.0797 C.3     1  UNL1        0.0283
     18 C           3.7679   40.2891   10.5877 C.3     1  UNL1        0.0001
     19 C           3.1435   41.3301    9.6775 C.3     1  UNL1        0.0021
     20 O          13.6941   41.0548    7.7712 O.3     1  UNL1       -0.4706
     21 C          13.8590   42.2263    6.9758 C.3     1  UNL1        0.2320
     22 C          15.2396   42.7731    7.1218 C.ar    1  UNL1        0.0212
     23 C          15.6535   43.8598    6.3430 C.ar    1  UNL1       -0.0007
     24 C          16.9456   44.3739    6.4891 C.ar    1  UNL1       -0.0002
     25 C          17.8251   43.8022    7.4139 C.ar    1  UNL1       -0.0000
     26 C          17.4131   42.7161    8.1922 C.ar    1  UNL1       -0.0002
     27 C          16.1212   42.2016    8.0459 C.ar    1  UNL1       -0.0007
@<TRIPOS>BOND
     1    18    19    1
     2    19    17    1
     3    17    16    1
     4    16    12    1
     5    11    14   ar
     6    11     8    1
     7     7     1    1
     8     2     3   ar
     9     3    20    1
    10    21    20    1
    11    21    22    1
    12    23    24   ar
    13    25    26   ar
    14    27    22   ar
    15     4     5   ar
    16     6     1   ar
    17    12    13   ar
    18    12    15   ar
    19     8     7   am
    20    11    15   ar
    21     7     9    2
    22     1     2   ar
    23     3     4   ar
    24    22    23   ar
    25    24    25   ar
    26    26    27   ar
    27     5     6   ar
    28    13    14   ar
    29     8    10    1
@<TRIPOS>MOLECULE
MolPort-001-631-060 4778425 CSSS00121599782 MCULE-7263481753 PubChem-4613212 ZINC000004778425 ZINC04778425
 27 29 0 0 0
SMALL
GASTEIGER

@<TRIPOS>ATOM
      1 C           9.5053   41.6747    7.2827 C.ar    1  UNL1        0.0568
      2 C          10.7064   42.0688    7.8868 C.ar    1  UNL1        0.0414
      3 C          11.9323   41.8983    7.2250 C.ar    1  UNL1        0.1392
      4 C          11.9491   41.3224    5.9512 C.ar    1  UNL1        0.0369
      5 C          10.7566   40.9232    5.3419 C.ar    1  UNL1        0.0033
      6 C           9.5388   41.0992    6.0047 C.ar    1  UNL1        0.0047
      7 C           8.2242   41.8710    7.9830 C.2     1  UNL1        0.2518
      8 N           7.3478   42.9314    7.5792 N.am    1  UNL1       -0.2480
      9 O           7.9028   41.1039    8.9315 O.2     1  UNL1       -0.2697
     10 H           7.6437   43.5080    6.8381 H       1  UNL1        0.1581
     11 C           6.0765   43.2162    8.1700 C.ar    1  UNL1        0.2619
     12 N           4.2197   42.9554    9.0947 N.ar    1  UNL1       -0.1497
     13 N           4.3866   44.2527    8.9035 N.ar    1  UNL1       -0.0438
     14 N           5.5557   44.4519    8.3159 N.ar    1  UNL1       -0.0918
     15 N           5.2576   42.2652    8.6538 N.ar    1  UNL1       -0.1137
     16 C           3.0544   42.3705    9.7354 C.3     1  UNL1        0.1514
     17 C           3.2800   42.2697   11.2349 C.3     1  UNL1        0.0283
     18 C           3.7245   39.8428   11.5909 C.3     1  UNL1        0.0001
     19 C           4.3408   41.2282   11.5425 C.3     1  UNL1        0.0021
     20 O          13.1426   42.2895    7.8089 O.3     1  UNL1       -0.4706
     21 C          14.3392   41.5191    7.7267 C.3     1  UNL1        0.2320
     22 C          15.5283   42.4064    7.5682 C.ar    1  UNL1        0.0212
     23 C          16.7034   42.1449    8.2820 C.ar    1  UNL1       -0.0007
     24 C          17.8177   42.9746    8.1240 C.ar    1  UNL1       -0.0002
     25 C          17.7584   44.0666    7.2523 C.ar    1  UNL1       -0.0000
     26 C          16.5848   44.3293    6.5390 C.ar    1  UNL1       -0.0002
     27 C          15.4703   43.5000    6.6972 C.ar    1  UNL1       -0.0007
@<TRIPOS>BOND
     1    18    19    1
     2    19    17    1
     3    17    16    1
     4    16    12    1
     5    11    14   ar
     6    11     8    1
     7     7     1    1
     8     2     3   ar
     9     3    20    1
    10    21    20    1
    11    21    22    1
    12    23    24   ar
    13    25    26   ar
    14    27    22   ar
    15     4     5   ar
    16     6     1   ar
    17    12    13   ar
    18    12    15   ar
    19     8     7   am
    20    11    15   ar
    21     7     9    2
    22     1     2   ar
    23     3     4   ar
    24    22    23   ar
    25    24    25   ar
    26    26    27   ar
    27     5     6   ar
    28    13    14   ar
    29     8    10    1
@<TRIPOS>MOLECULE
MolPort-001-631-060 4778425 CSSS00121599782 MCULE-7263481753 PubChem-4613212 ZINC000004778425 ZINC04778425
 27 29 0 0 0
SMALL
GASTEIGER

@<TRIPOS>ATOM
      1 C          13.0352   39.7217   10.6712 C.ar    1  UNL1        0.0568
      2 C          13.7795   40.2690    9.6179 C.ar    1  UNL1        0.0414
      3 C          15.1761   40.1348    9.5804 C.ar    1  UNL1        0.1392
      4 C          15.8268   39.4515   10.6121 C.ar    1  UNL1        0.0369
      5 C          15.0933   38.9051   11.6686 C.ar    1  UNL1        0.0033
      6 C          13.7024   39.0390   11.6979 C.ar    1  UNL1        0.0047
      7 C          11.5686   39.8587   10.6917 C.2     1  UNL1        0.2518
      8 N          10.9667   40.9643   11.3779 N.am    1  UNL1       -0.2480
      9 O          10.8498   39.0054   10.1028 O.2     1  UNL1       -0.2697
     10 H          11.5676   41.6012   11.8278 H       1  UNL1        0.1581
     11 C           9.5604   41.2133   11.4593 C.ar    1  UNL1        0.2619
     12 N           7.5893   41.6375   10.9065 N.ar    1  UNL1       -0.1497
     13 N           7.6057   41.4790   12.2187 N.ar    1  UNL1       -0.0438
     14 N           8.8437   41.2105   12.6021 N.ar    1  UNL1       -0.0918
     15 N           8.7938   41.4754   10.3857 N.ar    1  UNL1       -0.1137
     16 C           6.3914   41.9242   10.1363 C.3     1  UNL1        0.1514
     17 C           5.1561   41.7096   10.9950 C.3     1  UNL1        0.0283
     18 C           3.0715   41.2952    9.6922 C.3     1  UNL1        0.0001
     19 C           4.2601   40.6498   10.3795 C.3     1  UNL1        0.0021
     20 O          15.9374   40.6699    8.5350 O.3     1  UNL1       -0.4706
     21 C          16.4998   41.9795    8.5638 C.3     1  UNL1        0.2320
     22 C          15.8754   42.8448    7.5208 C.ar    1  UNL1        0.0212
     23 C          16.4973   44.0355    7.1277 C.ar    1  UNL1       -0.0007
     24 C          15.9124   44.8390    6.1441 C.ar    1  UNL1       -0.0002
     25 C          14.7055   44.4531    5.5526 C.ar    1  UNL1       -0.0000
     26 C          14.0828   43.2642    5.9449 C.ar    1  UNL1       -0.0002
     27 C          14.6673   42.4608    6.9287 C.ar    1  UNL1       -0.0007
@<TRIPOS>BOND
     1    18    19    1
     2    19    17    1
     3    17    16    1
     4    16    12    1
     5    11    14   ar
     6    11     8    1
     7     7     1    1
     8     2     3   ar
     9     3    20    1
    10    21    20    1
    11    21    22    1
    12    23    24   ar
    13    25    26   ar
    14    27    22   ar
    15     4     5   ar
    16     6     1   ar
    17    12    13   ar
    18    12    15   ar
    19     8     7   am
    20    11    15   ar
    21     7     9    2
    22     1     2   ar
    23     3     4   ar
    24    22    23   ar
    25    24    25   ar
    26    26    27   ar
    27     5     6   ar
    28    13    14   ar
    29     8    10    1
@<TRIPOS>MOLECULE
MolPort-001-631-060 4778425 CSSS00121599782 MCULE-7263481753 PubChem-4613212 ZINC000004778425 ZINC04778425
 27 29 0 0 0
SMALL
GASTEIGER

@<TRIPOS>ATOM
      1 C          14.7917   42.6677    7.0112 C.ar    1  UNL1        0.0568
      2 C          15.4483   41.9400    8.0124 C.ar    1  UNL1        0.0414
      3 C          16.7847   42.2161    8.3409 C.ar    1  UNL1        0.1392
      4 C          17.4648   43.2258    7.6535 C.ar    1  UNL1        0.0369
      5 C          16.8193   43.9548    6.6512 C.ar    1  UNL1        0.0033
      6 C          15.4874   43.6774    6.3315 C.ar    1  UNL1        0.0047
      7 C          13.3849   42.3764    6.6851 C.2     1  UNL1        0.2518
      8 N          12.5372   41.7700    7.6695 N.am    1  UNL1       -0.2480
      9 O          12.9321   42.6650    5.5436 O.2     1  UNL1       -0.2697
     10 H          12.9364   41.5575    8.5440 H       1  UNL1        0.1581
     11 C          11.1561   41.4498    7.4791 C.ar    1  UNL1        0.2619
     12 N           9.4189   40.4419    6.8985 N.ar    1  UNL1       -0.1497
     13 N           9.0449   41.5439    7.5255 N.ar    1  UNL1       -0.0438
     14 N          10.1250   42.2079    7.9052 N.ar    1  UNL1       -0.0918
     15 N          10.7361   40.3381    6.8492 N.ar    1  UNL1       -0.1137
     16 C           8.4951   39.4584    6.3602 C.3     1  UNL1        0.1514
     17 C           9.2318   38.5018    5.4374 C.3     1  UNL1        0.0283
     18 C           9.9074   38.0454    3.0816 C.3     1  UNL1        0.0001
     19 C           9.2397   39.0363    4.0166 C.3     1  UNL1        0.0021
     20 O          17.4572   41.5042    9.3408 O.3     1  UNL1       -0.4706
     21 C          17.4799   40.0805    9.4108 C.3     1  UNL1        0.2320
     22 C          16.3561   39.5756   10.2525 C.ar    1  UNL1        0.0212
     23 C          16.6187   38.7999   11.3875 C.ar    1  UNL1       -0.0007
     24 C          15.5626   38.3357   12.1777 C.ar    1  UNL1       -0.0002
     25 C          14.2431   38.6465   11.8341 C.ar    1  UNL1       -0.0000
     26 C          13.9795   39.4207   10.7000 C.ar    1  UNL1       -0.0002
     27 C          15.0353   39.8846    9.9095 C.ar    1  UNL1       -0.0007
@<TRIPOS>BOND
     1    18    19    1
     2    19    17    1
     3    17    16    1
     4    16    12    1
     5    11    14   ar
     6    11     8    1
     7     7     1    1
     8     2     3   ar
     9     3    20    1
    10    21    20    1
    11    21    22    1
    12    23    24   ar
    13    25    26   ar
    14    27    22   ar
    15     4     5   ar
    16     6     1   ar
    17    12    13   ar
    18    12    15   ar
    19     8     7   am
    20    11    15   ar
    21     7     9    2
    22     1     2   ar
    23     3     4   ar
    24    22    23   ar
    25    24    25   ar
    26    26    27   ar
    27     5     6   ar
    28    13    14   ar
    29     8    10    1
@<TRIPOS>MOLECULE
MolPort-001-631-060 4778425 CSSS00121599782 MCULE-7263481753 PubChem-4613212 ZINC000004778425 ZINC04778425
 27 29 0 0 0
SMALL
GASTEIGER

@<TRIPOS>ATOM
      1 C          10.2339   42.3528    9.7688 C.ar    1  UNL1        0.0568
      2 C           9.0907   42.0220    9.0293 C.ar    1  UNL1        0.0414
      3 C           8.0751   42.9670    8.8167 C.ar    1  UNL1        0.1392
      4 C           8.2086   44.2497    9.3568 C.ar    1  UNL1        0.0369
      5 C           9.3435   44.5879   10.0986 C.ar    1  UNL1        0.0033
      6 C          10.3530   43.6433   10.3034 C.ar    1  UNL1        0.0047
      7 C          11.2984   41.3553    9.9735 C.2     1  UNL1        0.2518
      8 N          12.3830   41.2703    9.0398 N.am    1  UNL1       -0.2480
      9 O          11.2527   40.5836   10.9705 O.2     1  UNL1       -0.2697
     10 H          12.3728   41.8890    8.2741 H       1  UNL1        0.1581
     11 C          13.4789   40.3557    9.1348 C.ar    1  UNL1        0.2619
     12 N          14.5653   38.5835    9.3575 N.ar    1  UNL1       -0.1497
     13 N          15.4368   39.5601    9.1727 N.ar    1  UNL1       -0.0438
     14 N          14.7789   40.6996    9.0300 N.ar    1  UNL1       -0.0918
     15 N          13.3229   39.0352    9.3370 N.ar    1  UNL1       -0.1137
     16 C          14.9312   37.1883    9.5312 C.3     1  UNL1        0.1514
     17 C          14.2040   36.6045   10.7310 C.3     1  UNL1        0.0283
     18 C          11.8083   35.9235   10.6234 C.3     1  UNL1        0.0001
     19 C          13.2332   35.5245   10.2885 C.3     1  UNL1        0.0021
     20 O           6.9278   42.6582    8.0771 O.3     1  UNL1       -0.4706
     21 C           5.6180   43.0838    8.4455 C.3     1  UNL1        0.2320
     22 C           5.0012   42.1221    9.4052 C.ar    1  UNL1        0.0212
     23 C           3.7293   41.5943    9.1550 C.ar    1  UNL1       -0.0007
     24 C           3.1588   40.6872   10.0533 C.ar    1  UNL1       -0.0002
     25 C           3.8591   40.3069   11.2025 C.ar    1  UNL1       -0.0000
     26 C           5.1296   40.8340   11.4539 C.ar    1  UNL1       -0.0002
     27 C           5.7001   41.7413   10.5561 C.ar    1  UNL1       -0.0007
@<TRIPOS>BOND
     1    18    19    1
     2    19    17    1
     3    17    16    1
     4    16    12    1
     5    11    14   ar
     6    11     8    1
     7     7     1    1
     8     2     3   ar
     9     3    20    1
    10    21    20    1
    11    21    22    1
    12    23    24   ar
    13    25    26   ar
    14    27    22   ar
    15     4     5   ar
    16     6     1   ar
    17    12    13   ar
    18    12    15   ar
    19     8     7   am
    20    11    15   ar
    21     7     9    2
    22     1     2   ar
    23     3     4   ar
    24    22    23   ar
    25    24    25   ar
    26    26    27   ar
    27     5     6   ar
    28    13    14   ar
    29     8    10    1
