@<TRIPOS>MOLECULE
MolPort-007-713-434 ChemDiv-E002-0303 MCULE-4203030002 PubChem-22509878 ZINC000006768035
 27 29 0 0 0
SMALL
GASTEIGER

@<TRIPOS>ATOM
      1 C          12.7230   36.4730    9.4077 C.ar    1  UNL1        0.1905
      2 C          12.7832   38.7365    8.6207 C.ar    1  UNL1        0.1904
      3 N          11.5453   37.1233    9.5555 N.ar    1  UNL1       -0.1239
      4 N          11.5762   38.3788    9.1121 N.ar    1  UNL1       -0.1240
      5 S          13.8960   37.4802    8.7215 S.2     1  UNL1       -0.0151
      6 C          14.3718   40.6570    8.1357 C.2     1  UNL1        0.3096
      7 N          13.0867   40.0295    8.0884 N.am    1  UNL1       -0.2468
      8 N          14.5254   41.9595    7.5573 N.am    1  UNL1       -0.2680
      9 O          15.3489   40.0725    8.6769 O.2     1  UNL1       -0.2521
     10 H          12.3545   40.5259    7.6562 H       1  UNL1        0.1584
     11 H          13.7220   42.3585    7.1515 H       1  UNL1        0.1564
     12 C          15.7258   42.7428    7.5075 C.ar    1  UNL1        0.0517
     13 C          15.9251   43.7382    6.5379 C.ar    1  UNL1        0.0170
     14 C          17.1087   44.4816    6.5208 C.ar    1  UNL1        0.0309
     15 C          18.1014   44.2352    7.4729 C.ar    1  UNL1        0.1402
     16 C          17.9100   43.2460    8.4410 C.ar    1  UNL1        0.0309
     17 C          16.7255   42.5031    8.4570 C.ar    1  UNL1        0.0170
     18 F          19.2487   44.9550    7.4572 F       1  UNL1       -0.2042
     19 N          12.9403   35.1268    9.8726 N.pl3   1  UNL1       -0.2659
     20 C          13.8811   34.2299    9.2461 C.ar    1  UNL1        0.0531
     21 C          15.1818   34.6557    8.9299 C.ar    1  UNL1        0.0149
     22 C          16.0803   33.7921    8.2974 C.ar    1  UNL1        0.0013
     23 C          15.6853   32.4943    7.9654 C.ar    1  UNL1        0.0001
     24 C          14.3910   32.0614    8.2625 C.ar    1  UNL1        0.0013
     25 C          13.4930   32.9257    8.8953 C.ar    1  UNL1        0.0149
     26 C          12.1800   34.6657   11.0316 C.3     1  UNL1        0.0975
     27 C          10.9915   35.5780   11.2741 C.3     1  UNL1        0.0236
@<TRIPOS>BOND
     1     1    19    1
     2     1     5   ar
     3    26    19    1
     4    26    27    1
     5    21    22   ar
     6    23    24   ar
     7    25    20   ar
     8     2     7    1
     9     2     5   ar
    10     6     8   am
    11    13    14   ar
    12    15    16   ar
    13    15    18    1
    14    17    12   ar
    15    19    20    1
    16     3     4   ar
    17     7     6   am
    18     8    12    1
    19     1     3   ar
    20    20    21   ar
    21    22    23   ar
    22    24    25   ar
    23     2     4   ar
    24     6     9    2
    25    12    13   ar
    26    14    15   ar
    27    16    17   ar
    28     7    10    1
    29     8    11    1
@<TRIPOS>MOLECULE
MolPort-007-713-434 ChemDiv-E002-0303 MCULE-4203030002 PubChem-22509878 ZINC000006768035
 27 29 0 0 0
SMALL
GASTEIGER

@<TRIPOS>ATOM
      1 C           7.7464   42.4688    7.9331 C.ar    1  UNL1        0.1905
      2 C           9.8919   41.8061    7.0940 C.ar    1  UNL1        0.1904
      3 N           7.7572   42.2579    6.5963 N.ar    1  UNL1       -0.1239
      4 N           8.9474   41.8830    6.1305 N.ar    1  UNL1       -0.1240
      5 S           9.2779   42.2151    8.6048 S.2     1  UNL1       -0.0151
      6 C          12.3941   42.2180    7.2239 C.2     1  UNL1        0.3096
      7 N          11.2536   41.4335    6.8611 N.am    1  UNL1       -0.2468
      8 N          13.7020   41.7127    6.9264 N.am    1  UNL1       -0.2680
      9 O          12.2478   43.3326    7.7944 O.2     1  UNL1       -0.2521
     10 H          11.4187   40.5707    6.4167 H       1  UNL1        0.1584
     11 H          13.7443   40.8363    6.4798 H       1  UNL1        0.1564
     12 C          14.9555   42.3490    7.2107 C.ar    1  UNL1        0.0517
     13 C          15.8291   41.8648    8.1971 C.ar    1  UNL1        0.0170
     14 C          17.0429   42.5120    8.4459 C.ar    1  UNL1        0.0309
     15 C          17.3917   43.6477    7.7105 C.ar    1  UNL1        0.1402
     16 C          16.5273   44.1355    6.7271 C.ar    1  UNL1        0.0309
     17 C          15.3134   43.4872    6.4791 C.ar    1  UNL1        0.0170
     18 F          18.5676   44.2756    7.9509 F       1  UNL1       -0.2042
     19 N           6.5852   42.9394    8.6442 N.pl3   1  UNL1       -0.2659
     20 C           5.7499   42.0668    9.4334 C.ar    1  UNL1        0.0531
     21 C           4.4986   41.6420    8.9569 C.ar    1  UNL1        0.0149
     22 C           3.6807   40.8199    9.7369 C.ar    1  UNL1        0.0013
     23 C           4.1011   40.4199   11.0073 C.ar    1  UNL1        0.0001
     24 C           5.3374   40.8450   11.4991 C.ar    1  UNL1        0.0013
     25 C           6.1549   41.6670   10.7182 C.ar    1  UNL1        0.0149
     26 C           6.2560   44.3603    8.5646 C.3     1  UNL1        0.0975
     27 C           5.1611   44.5868    7.5382 C.3     1  UNL1        0.0236
@<TRIPOS>BOND
     1     1    19    1
     2     1     5   ar
     3    26    19    1
     4    26    27    1
     5    21    22   ar
     6    23    24   ar
     7    25    20   ar
     8     2     7    1
     9     2     5   ar
    10     6     8   am
    11    13    14   ar
    12    15    16   ar
    13    15    18    1
    14    17    12   ar
    15    19    20    1
    16     3     4   ar
    17     7     6   am
    18     8    12    1
    19     1     3   ar
    20    20    21   ar
    21    22    23   ar
    22    24    25   ar
    23     2     4   ar
    24     6     9    2
    25    12    13   ar
    26    14    15   ar
    27    16    17   ar
    28     7    10    1
    29     8    11    1
@<TRIPOS>MOLECULE
MolPort-007-713-434 ChemDiv-E002-0303 MCULE-4203030002 PubChem-22509878 ZINC000006768035
 27 29 0 0 0
SMALL
GASTEIGER

@<TRIPOS>ATOM
      1 C          12.6343   41.0822    8.6421 C.ar    1  UNL1        0.1905
      2 C          10.2512   41.2023    8.4120 C.ar    1  UNL1        0.1904
      3 N          12.1358   42.3202    8.8672 N.ar    1  UNL1       -0.1239
      4 N          10.8111   42.3860    8.7461 N.ar    1  UNL1       -0.1240
      5 S          11.4050   39.9912    8.2425 S.2     1  UNL1       -0.0151
      6 C           7.8244   41.3850    9.1362 C.2     1  UNL1        0.3096
      7 N           8.8486   41.0006    8.2138 N.am    1  UNL1       -0.2468
      8 N           6.4570   41.1182    8.7995 N.am    1  UNL1       -0.2680
      9 O           8.1226   41.9476   10.2243 O.2     1  UNL1       -0.2521
     10 H           8.5663   40.5634    7.3780 H       1  UNL1        0.1584
     11 H           6.2947   40.6762    7.9348 H       1  UNL1        0.1564
     12 C           5.3002   41.4271    9.5891 C.ar    1  UNL1        0.0517
     13 C           5.0539   40.8051   10.8233 C.ar    1  UNL1        0.0170
     14 C           3.9151   41.1322   11.5650 C.ar    1  UNL1        0.0309
     15 C           3.0146   42.0832   11.0781 C.ar    1  UNL1        0.1402
     16 C           3.2531   42.7064    9.8504 C.ar    1  UNL1        0.0309
     17 C           4.3926   42.3783    9.1095 C.ar    1  UNL1        0.0170
     18 F           1.9108   42.4008   11.7960 F       1  UNL1       -0.2042
     19 N          14.0448   40.7890    8.6572 N.pl3   1  UNL1       -0.2659
     20 C          15.0332   41.6947    8.1238 C.ar    1  UNL1        0.0531
     21 C          14.7324   42.5299    7.0351 C.ar    1  UNL1        0.0149
     22 C          15.7019   43.3849    6.5038 C.ar    1  UNL1        0.0013
     23 C          16.9871   43.4083    7.0497 C.ar    1  UNL1        0.0001
     24 C          17.3040   42.5742    8.1243 C.ar    1  UNL1        0.0013
     25 C          16.3338   41.7194    8.6553 C.ar    1  UNL1        0.0149
     26 C          14.4809   39.5264    9.2482 C.3     1  UNL1        0.0975
     27 C          14.2343   39.5370   10.7458 C.3     1  UNL1        0.0236
@<TRIPOS>BOND
     1     1    19    1
     2     1     5   ar
     3    26    19    1
     4    26    27    1
     5    21    22   ar
     6    23    24   ar
     7    25    20   ar
     8     2     7    1
     9     2     5   ar
    10     6     8   am
    11    13    14   ar
    12    15    16   ar
    13    15    18    1
    14    17    12   ar
    15    19    20    1
    16     3     4   ar
    17     7     6   am
    18     8    12    1
    19     1     3   ar
    20    20    21   ar
    21    22    23   ar
    22    24    25   ar
    23     2     4   ar
    24     6     9    2
    25    12    13   ar
    26    14    15   ar
    27    16    17   ar
    28     7    10    1
    29     8    11    1
@<TRIPOS>MOLECULE
MolPort-007-713-434 ChemDiv-E002-0303 MCULE-4203030002 PubChem-22509878 ZINC000006768035
 27 29 0 0 0
SMALL
GASTEIGER

@<TRIPOS>ATOM
      1 C          12.8798   40.9338    9.4646 C.ar    1  UNL1        0.1905
      2 C          10.8039   42.1028    9.7296 C.ar    1  UNL1        0.1904
      3 N          12.6680   41.8724    8.5128 N.ar    1  UNL1       -0.1239
      4 N          11.5179   42.5270    8.6635 N.ar    1  UNL1       -0.1240
      5 S          11.5854   40.8615   10.5510 S.2     1  UNL1       -0.0151
      6 C           8.2657   42.0535    9.7812 C.2     1  UNL1        0.3096
      7 N           9.5313   42.6340   10.1113 N.am    1  UNL1       -0.2468
      8 N           7.0703   42.7004   10.2358 N.am    1  UNL1       -0.2680
      9 O           8.2067   40.9926    9.1027 O.2     1  UNL1       -0.2521
     10 H           9.5259   43.4632   10.6421 H       1  UNL1        0.1584
     11 H           7.1882   43.5251   10.7605 H       1  UNL1        0.1564
     12 C           5.7203   42.2733   10.0071 C.ar    1  UNL1        0.0517
     13 C           5.2472   41.0298   10.4550 C.ar    1  UNL1        0.0170
     14 C           3.9245   40.6479   10.2132 C.ar    1  UNL1        0.0309
     15 C           3.0656   41.5062    9.5218 C.ar    1  UNL1        0.1402
     16 C           3.5294   42.7454    9.0729 C.ar    1  UNL1        0.0309
     17 C           4.8528   43.1264    9.3155 C.ar    1  UNL1        0.0170
     18 F           1.7837   41.1370    9.2870 F       1  UNL1       -0.2042
     19 N          14.0271   40.0624    9.4664 N.pl3   1  UNL1       -0.2659
     20 C          13.9421   38.6651    9.8161 C.ar    1  UNL1        0.0531
     21 C          13.7094   37.6891    8.8329 C.ar    1  UNL1        0.0149
     22 C          13.5995   36.3399    9.1803 C.ar    1  UNL1        0.0013
     23 C          13.7122   35.9516   10.5171 C.ar    1  UNL1        0.0001
     24 C          13.9310   36.9126   11.5067 C.ar    1  UNL1        0.0013
     25 C          14.0411   38.2618   11.1585 C.ar    1  UNL1        0.0149
     26 C          15.3211   40.6243    9.0873 C.3     1  UNL1        0.0975
     27 C          15.1421   41.6528    7.9855 C.3     1  UNL1        0.0236
@<TRIPOS>BOND
     1     1    19    1
     2     1     5   ar
     3    26    19    1
     4    26    27    1
     5    21    22   ar
     6    23    24   ar
     7    25    20   ar
     8     2     7    1
     9     2     5   ar
    10     6     8   am
    11    13    14   ar
    12    15    16   ar
    13    15    18    1
    14    17    12   ar
    15    19    20    1
    16     3     4   ar
    17     7     6   am
    18     8    12    1
    19     1     3   ar
    20    20    21   ar
    21    22    23   ar
    22    24    25   ar
    23     2     4   ar
    24     6     9    2
    25    12    13   ar
    26    14    15   ar
    27    16    17   ar
    28     7    10    1
    29     8    11    1
@<TRIPOS>MOLECULE
MolPort-007-713-434 ChemDiv-E002-0303 MCULE-4203030002 PubChem-22509878 ZINC000006768035
 27 29 0 0 0
SMALL
GASTEIGER

@<TRIPOS>ATOM
      1 C          12.5757   41.5940    8.2156 C.ar    1  UNL1        0.1905
      2 C          10.4902   41.6085    9.3975 C.ar    1  UNL1        0.1904
      3 N          11.9644   40.3868    8.2387 N.ar    1  UNL1       -0.1239
      4 N          10.8023   40.3958    8.8894 N.ar    1  UNL1       -0.1240
      5 S          11.6750   42.7520    9.0575 S.2     1  UNL1       -0.0151
      6 C           7.9678   41.6533    9.6857 C.2     1  UNL1        0.3096
      7 N           9.3026   41.8889   10.1447 N.am    1  UNL1       -0.2468
      8 N           6.8729   41.9845   10.5492 N.am    1  UNL1       -0.2680
      9 O           7.7622   41.1636    8.5424 O.2     1  UNL1       -0.2521
     10 H           9.4123   42.2737   11.0442 H       1  UNL1        0.1584
     11 H           7.1041   42.3635   11.4279 H       1  UNL1        0.1564
     12 C           5.4758   41.8222   10.2683 C.ar    1  UNL1        0.0517
     13 C           4.7559   42.7575    9.5084 C.ar    1  UNL1        0.0170
     14 C           3.3947   42.5652    9.2552 C.ar    1  UNL1        0.0309
     15 C           2.7436   41.4366    9.7601 C.ar    1  UNL1        0.1402
     16 C           3.4537   40.5013   10.5173 C.ar    1  UNL1        0.0309
     17 C           4.8153   40.6948   10.7697 C.ar    1  UNL1        0.0170
     18 F           1.4246   41.2494    9.5153 F       1  UNL1       -0.2042
     19 N          13.8711   41.8069    7.6220 N.pl3   1  UNL1       -0.2659
     20 C          15.1008   41.4668    8.2958 C.ar    1  UNL1        0.0531
     21 C          16.2764   42.1999    8.0634 C.ar    1  UNL1        0.0149
     22 C          17.4718   41.8490    8.6968 C.ar    1  UNL1        0.0013
     23 C          17.5076   40.7547    9.5637 C.ar    1  UNL1        0.0001
     24 C          16.3493   40.0090    9.7944 C.ar    1  UNL1        0.0013
     25 C          15.1541   40.3607    9.1608 C.ar    1  UNL1        0.0149
     26 C          13.9294   42.3806    6.2799 C.3     1  UNL1        0.0975
     27 C          14.0257   43.8932    6.3613 C.3     1  UNL1        0.0236
@<TRIPOS>BOND
     1     1    19    1
     2     1     5   ar
     3    26    19    1
     4    26    27    1
     5    21    22   ar
     6    23    24   ar
     7    25    20   ar
     8     2     7    1
     9     2     5   ar
    10     6     8   am
    11    13    14   ar
    12    15    16   ar
    13    15    18    1
    14    17    12   ar
    15    19    20    1
    16     3     4   ar
    17     7     6   am
    18     8    12    1
    19     1     3   ar
    20    20    21   ar
    21    22    23   ar
    22    24    25   ar
    23     2     4   ar
    24     6     9    2
    25    12    13   ar
    26    14    15   ar
    27    16    17   ar
    28     7    10    1
    29     8    11    1
@<TRIPOS>MOLECULE
MolPort-007-713-434 ChemDiv-E002-0303 MCULE-4203030002 PubChem-22509878 ZINC000006768035
 27 29 0 0 0
SMALL
GASTEIGER

@<TRIPOS>ATOM
      1 C           9.6810   41.7711    8.8325 C.ar    1  UNL1        0.1905
      2 C          11.3523   40.2285    8.0751 C.ar    1  UNL1        0.1904
      3 N          10.9207   42.0539    9.2959 N.ar    1  UNL1       -0.1239
      4 N          11.8509   41.2011    8.8699 N.ar    1  UNL1       -0.1240
      5 S           9.6916   40.3843    7.8641 S.2     1  UNL1       -0.0151
      6 C          13.1777   38.4654    8.1585 C.2     1  UNL1        0.3096
      7 N          12.1357   39.1836    7.4905 N.am    1  UNL1       -0.2468
      8 N          13.8776   37.4400    7.4423 N.am    1  UNL1       -0.2680
      9 O          13.4724   38.7323    9.3548 O.2     1  UNL1       -0.2521
     10 H          11.9429   38.9398    6.5564 H       1  UNL1        0.1584
     11 H          13.5972   37.2833    6.5116 H       1  UNL1        0.1564
     12 C          14.9432   36.6181    7.9383 C.ar    1  UNL1        0.0517
     13 C          15.8463   35.9721    7.0794 C.ar    1  UNL1        0.0170
     14 C          16.8728   35.1787    7.5999 C.ar    1  UNL1        0.0309
     15 C          17.0035   35.0256    8.9826 C.ar    1  UNL1        0.1402
     16 C          16.1083   35.6656    9.8437 C.ar    1  UNL1        0.0309
     17 C          15.0820   36.4589    9.3217 C.ar    1  UNL1        0.0170
     18 F          17.9978   34.2570    9.4880 F       1  UNL1       -0.2042
     19 N           8.5109   42.5212    9.2120 N.pl3   1  UNL1       -0.2659
     20 C           7.4477   41.9549   10.0061 C.ar    1  UNL1        0.0531
     21 C           6.1881   41.6929    9.4422 C.ar    1  UNL1        0.0149
     22 C           5.1527   41.1708   10.2224 C.ar    1  UNL1        0.0013
     23 C           5.3624   40.9129   11.5788 C.ar    1  UNL1        0.0001
     24 C           6.6059   41.1804   12.1559 C.ar    1  UNL1        0.0013
     25 C           7.6410   41.7023   11.3749 C.ar    1  UNL1        0.0149
     26 C           8.4128   43.9128    8.7788 C.3     1  UNL1        0.0975
     27 C           8.1123   44.8100    9.9655 C.3     1  UNL1        0.0236
@<TRIPOS>BOND
     1     1    19    1
     2     1     5   ar
     3    26    19    1
     4    26    27    1
     5    21    22   ar
     6    23    24   ar
     7    25    20   ar
     8     2     7    1
     9     2     5   ar
    10     6     8   am
    11    13    14   ar
    12    15    16   ar
    13    15    18    1
    14    17    12   ar
    15    19    20    1
    16     3     4   ar
    17     7     6   am
    18     8    12    1
    19     1     3   ar
    20    20    21   ar
    21    22    23   ar
    22    24    25   ar
    23     2     4   ar
    24     6     9    2
    25    12    13   ar
    26    14    15   ar
    27    16    17   ar
    28     7    10    1
    29     8    11    1
@<TRIPOS>MOLECULE
MolPort-007-713-434 ChemDiv-E002-0303 MCULE-4203030002 PubChem-22509878 ZINC000006768035
 27 29 0 0 0
SMALL
GASTEIGER

@<TRIPOS>ATOM
      1 C           9.4372   41.1518   10.7975 C.ar    1  UNL1        0.1905
      2 C          11.6686   40.6549   10.0761 C.ar    1  UNL1        0.1904
      3 N           9.5876   39.8809   10.3571 N.ar    1  UNL1       -0.1239
      4 N          10.8288   39.6023    9.9626 N.ar    1  UNL1       -0.1240
      5 S          10.8874   42.0148   10.6819 S.2     1  UNL1       -0.0151
      6 C          13.6953   41.5601    8.8430 C.2     1  UNL1        0.3096
      7 N          13.0529   40.6252    9.7153 N.am    1  UNL1       -0.2468
      8 N          15.0944   41.4036    8.5739 N.am    1  UNL1       -0.2680
      9 O          13.0400   42.5028    8.3223 O.2     1  UNL1       -0.2521
     10 H          13.6063   39.9058   10.0967 H       1  UNL1        0.1584
     11 H          15.5452   40.6463    9.0127 H       1  UNL1        0.1564
     12 C          15.9070   42.2338    7.7327 C.ar    1  UNL1        0.0517
     13 C          17.2781   42.4187    7.9709 C.ar    1  UNL1        0.0170
     14 C          18.0380   43.2358    7.1289 C.ar    1  UNL1        0.0309
     15 C          17.4326   43.8737    6.0430 C.ar    1  UNL1        0.1402
     16 C          16.0684   43.6944    5.7998 C.ar    1  UNL1        0.0309
     17 C          15.3094   42.8768    6.6428 C.ar    1  UNL1        0.0170
     18 F          18.1681   44.6656    5.2266 F       1  UNL1       -0.2042
     19 N           8.1691   41.6932   11.2150 N.pl3   1  UNL1       -0.2659
     20 C           7.1432   42.0828   10.2781 C.ar    1  UNL1        0.0531
     21 C           7.4414   42.9191    9.1895 C.ar    1  UNL1        0.0149
     22 C           6.4387   43.3168    8.3009 C.ar    1  UNL1        0.0013
     23 C           5.1234   42.8897    8.4958 C.ar    1  UNL1        0.0001
     24 C           4.8100   42.0682    9.5810 C.ar    1  UNL1        0.0013
     25 C           5.8135   41.6707   10.4692 C.ar    1  UNL1        0.0149
     26 C           7.9187   41.8392   12.6467 C.3     1  UNL1        0.0975
     27 C           8.9654   41.0793   13.4409 C.3     1  UNL1        0.0236
@<TRIPOS>BOND
     1     1    19    1
     2     1     5   ar
     3    26    19    1
     4    26    27    1
     5    21    22   ar
     6    23    24   ar
     7    25    20   ar
     8     2     7    1
     9     2     5   ar
    10     6     8   am
    11    13    14   ar
    12    15    16   ar
    13    15    18    1
    14    17    12   ar
    15    19    20    1
    16     3     4   ar
    17     7     6   am
    18     8    12    1
    19     1     3   ar
    20    20    21   ar
    21    22    23   ar
    22    24    25   ar
    23     2     4   ar
    24     6     9    2
    25    12    13   ar
    26    14    15   ar
    27    16    17   ar
    28     7    10    1
    29     8    11    1
@<TRIPOS>MOLECULE
MolPort-007-713-434 ChemDiv-E002-0303 MCULE-4203030002 PubChem-22509878 ZINC000006768035
 27 29 0 0 0
SMALL
GASTEIGER

@<TRIPOS>ATOM
      1 C          11.3717   38.7975    9.6974 C.ar    1  UNL1        0.1905
      2 C          12.0286   41.0409    9.1662 C.ar    1  UNL1        0.1904
      3 N          11.2855   39.6445   10.7494 N.ar    1  UNL1       -0.1239
      4 N          11.6438   40.8926   10.4532 N.ar    1  UNL1       -0.1240
      5 S          11.9440   39.5918    8.3180 S.2     1  UNL1       -0.0151
      6 C          13.7124   42.4723    7.9159 C.2     1  UNL1        0.3096
      7 N          12.4668   42.2762    8.5923 N.am    1  UNL1       -0.2468
      8 N          14.0150   43.7708    7.3900 N.am    1  UNL1       -0.2680
      9 O          14.5266   41.5185    7.7868 O.2     1  UNL1       -0.2521
     10 H          11.8646   43.0514    8.6688 H       1  UNL1        0.1584
     11 H          13.3356   44.4702    7.5260 H       1  UNL1        0.1564
     12 C          15.2031   44.1589    6.6865 C.ar    1  UNL1        0.0517
     13 C          16.3739   43.3850    6.7196 C.ar    1  UNL1        0.0170
     14 C          17.5128   43.7957    6.0209 C.ar    1  UNL1        0.0309
     15 C          17.4894   44.9830    5.2844 C.ar    1  UNL1        0.1402
     16 C          16.3277   45.7584    5.2468 C.ar    1  UNL1        0.0309
     17 C          15.1890   45.3465    5.9461 C.ar    1  UNL1        0.0170
     18 F          18.5925   45.3818    4.6071 F       1  UNL1       -0.2042
     19 N          11.0938   37.3876    9.7998 N.pl3   1  UNL1       -0.2659
     20 C          12.1313   36.3855    9.7616 C.ar    1  UNL1        0.0531
     21 C          13.2160   36.5046    8.8771 C.ar    1  UNL1        0.0149
     22 C          14.2036   35.5171    8.8237 C.ar    1  UNL1        0.0013
     23 C          14.1131   34.3938    9.6486 C.ar    1  UNL1        0.0001
     24 C          13.0335   34.2560   10.5240 C.ar    1  UNL1        0.0013
     25 C          12.0463   35.2441   10.5769 C.ar    1  UNL1        0.0149
     26 C           9.7037   36.9679    9.9588 C.3     1  UNL1        0.0975
     27 C           9.5751   36.0200   11.1372 C.3     1  UNL1        0.0236
@<TRIPOS>BOND
     1     1    19    1
     2     1     5   ar
     3    26    19    1
     4    26    27    1
     5    21    22   ar
     6    23    24   ar
     7    25    20   ar
     8     2     7    1
     9     2     5   ar
    10     6     8   am
    11    13    14   ar
    12    15    16   ar
    13    15    18    1
    14    17    12   ar
    15    19    20    1
    16     3     4   ar
    17     7     6   am
    18     8    12    1
    19     1     3   ar
    20    20    21   ar
    21    22    23   ar
    22    24    25   ar
    23     2     4   ar
    24     6     9    2
    25    12    13   ar
    26    14    15   ar
    27    16    17   ar
    28     7    10    1
    29     8    11    1
@<TRIPOS>MOLECULE
MolPort-007-713-434 ChemDiv-E002-0303 MCULE-4203030002 PubChem-22509878 ZINC000006768035
 27 29 0 0 0
SMALL
GASTEIGER

@<TRIPOS>ATOM
      1 C          12.8520   40.1014    9.8065 C.ar    1  UNL1        0.1905
      2 C          10.8672   40.6891   11.0156 C.ar    1  UNL1        0.1904
      3 N          12.9548   39.8920   11.1397 N.ar    1  UNL1       -0.1239
      4 N          11.8499   40.2119   11.8111 N.ar    1  UNL1       -0.1240
      5 S          11.3392   40.7414    9.4028 S.2     1  UNL1       -0.0151
      6 C           8.3688   41.0411   10.7305 C.2     1  UNL1        0.3096
      7 N           9.5829   41.1110   11.4846 N.am    1  UNL1       -0.2468
      8 N           7.1537   41.5019   11.3351 N.am    1  UNL1       -0.2680
      9 O           8.3712   40.5823    9.5563 O.2     1  UNL1       -0.2521
     10 H           9.5305   41.4778   12.3967 H       1  UNL1        0.1584
     11 H           7.2229   41.8482   12.2541 H       1  UNL1        0.1564
     12 C           5.8476   41.5119   10.7425 C.ar    1  UNL1        0.0517
     13 C           4.6888   41.7470   11.4992 C.ar    1  UNL1        0.0170
     14 C           3.4325   41.7490   10.8863 C.ar    1  UNL1        0.0309
     15 C           3.3258   41.5159    9.5127 C.ar    1  UNL1        0.1402
     16 C           4.4748   41.2812    8.7530 C.ar    1  UNL1        0.0309
     17 C           5.7309   41.2795    9.3673 C.ar    1  UNL1        0.0170
     18 F           2.1089   41.5177    8.9179 F       1  UNL1       -0.2042
     19 N          13.9433   39.8846    8.8913 N.pl3   1  UNL1       -0.2659
     20 C          14.7480   40.9632    8.3708 C.ar    1  UNL1        0.0531
     21 C          16.0385   41.2052    8.8700 C.ar    1  UNL1        0.0149
     22 C          16.8032   42.2688    8.3827 C.ar    1  UNL1        0.0013
     23 C          16.2823   43.1088    7.3960 C.ar    1  UNL1        0.0001
     24 C          14.9957   42.8876    6.8994 C.ar    1  UNL1        0.0013
     25 C          14.2316   41.8236    7.3871 C.ar    1  UNL1        0.0149
     26 C          14.2447   38.5130    8.4893 C.3     1  UNL1        0.0975
     27 C          15.2018   37.8759    9.4801 C.3     1  UNL1        0.0236
@<TRIPOS>BOND
     1     1    19    1
     2     1     5   ar
     3    26    19    1
     4    26    27    1
     5    21    22   ar
     6    23    24   ar
     7    25    20   ar
     8     2     7    1
     9     2     5   ar
    10     6     8   am
    11    13    14   ar
    12    15    16   ar
    13    15    18    1
    14    17    12   ar
    15    19    20    1
    16     3     4   ar
    17     7     6   am
    18     8    12    1
    19     1     3   ar
    20    20    21   ar
    21    22    23   ar
    22    24    25   ar
    23     2     4   ar
    24     6     9    2
    25    12    13   ar
    26    14    15   ar
    27    16    17   ar
    28     7    10    1
    29     8    11    1
@<TRIPOS>MOLECULE
MolPort-007-713-434 ChemDiv-E002-0303 MCULE-4203030002 PubChem-22509878 ZINC000006768035
 27 29 0 0 0
SMALL
GASTEIGER

@<TRIPOS>ATOM
      1 C           7.8868   41.3529    9.3400 C.ar    1  UNL1        0.1905
      2 C          10.0512   40.6810    8.5586 C.ar    1  UNL1        0.1904
      3 N           7.8463   40.6650    8.1751 N.ar    1  UNL1       -0.1239
      4 N           9.0480   40.2855    7.7440 N.ar    1  UNL1       -0.1240
      5 S           9.4777   41.5457    9.8814 S.2     1  UNL1       -0.0151
      6 C          12.4593   41.4026    8.2013 C.2     1  UNL1        0.3096
      7 N          11.4362   40.4096    8.3231 N.am    1  UNL1       -0.2468
      8 N          13.8080   40.9784    7.9661 N.am    1  UNL1       -0.2680
      9 O          12.1762   42.6272    8.2992 O.2     1  UNL1       -0.2521
     10 H          11.7062   39.4667    8.2382 H       1  UNL1        0.1584
     11 H          13.9591   40.0078    7.9000 H       1  UNL1        0.1564
     12 C          14.9608   41.8187    7.8171 C.ar    1  UNL1        0.0517
     13 C          15.0149   42.8451    6.8610 C.ar    1  UNL1        0.0170
     14 C          16.1562   43.6439    6.7451 C.ar    1  UNL1        0.0309
     15 C          17.2513   43.4221    7.5841 C.ar    1  UNL1        0.1402
     16 C          17.2047   42.4023    8.5382 C.ar    1  UNL1        0.0309
     17 C          16.0624   41.6040    8.6531 C.ar    1  UNL1        0.0170
     18 F          18.3576   44.1956    7.4727 F       1  UNL1       -0.2042
     19 N           6.7147   41.9149    9.9611 N.pl3   1  UNL1       -0.2659
     20 C           5.8559   42.8600    9.2895 C.ar    1  UNL1        0.0531
     21 C           4.4586   42.7705    9.4021 C.ar    1  UNL1        0.0149
     22 C           3.6301   43.6710    8.7268 C.ar    1  UNL1        0.0013
     23 C           4.1896   44.6668    7.9231 C.ar    1  UNL1        0.0001
     24 C           5.5771   44.7598    7.7918 C.ar    1  UNL1        0.0013
     25 C           6.4050   43.8590    8.4677 C.ar    1  UNL1        0.0149
     26 C           6.3864   41.4959   11.3214 C.3     1  UNL1        0.0975
     27 C           5.1091   40.6759   11.3222 C.3     1  UNL1        0.0236
@<TRIPOS>BOND
     1     1    19    1
     2     1     5   ar
     3    26    19    1
     4    26    27    1
     5    21    22   ar
     6    23    24   ar
     7    25    20   ar
     8     2     7    1
     9     2     5   ar
    10     6     8   am
    11    13    14   ar
    12    15    16   ar
    13    15    18    1
    14    17    12   ar
    15    19    20    1
    16     3     4   ar
    17     7     6   am
    18     8    12    1
    19     1     3   ar
    20    20    21   ar
    21    22    23   ar
    22    24    25   ar
    23     2     4   ar
    24     6     9    2
    25    12    13   ar
    26    14    15   ar
    27    16    17   ar
    28     7    10    1
    29     8    11    1
