@<TRIPOS>MOLECULE
MolPort-001-625-477 4696243 CSSS00132526133 ChemDiv-Y030-8192 LN00990780 MCULE-6331054327 PubChem-4036561 ZINC000004696243 ZINC04696243
 32 34 0 0 0
SMALL
GASTEIGER

@<TRIPOS>ATOM
      1 C          11.8128   38.7671    8.0512 C.2     1  UNL1        0.2495
      2 O          10.8018   38.1645    8.5045 O.2     1  UNL1       -0.2698
      3 N          11.7957   40.1920    7.8741 N.am    1  UNL1       -0.2804
      4 H          12.6073   40.5979    7.4922 H       1  UNL1        0.1552
      5 C           8.5992   42.8626    8.7470 C.ar    1  UNL1        0.0757
      6 C           9.2723   42.2060    9.7890 C.ar    1  UNL1        0.0077
      7 C          10.3217   41.3245    9.5167 C.ar    1  UNL1        0.0149
      8 C          10.7215   41.0864    8.1946 C.ar    1  UNL1        0.0505
      9 C          10.0619   41.7454    7.1539 C.ar    1  UNL1        0.0149
     10 C           9.0122   42.6262    7.4280 C.ar    1  UNL1        0.0077
     11 C           7.5006   43.8098    9.0731 C.2     1  UNL1        0.3412
     12 O           7.5561   44.9782    8.6044 O.2     1  UNL1       -0.2449
     13 O           6.3983   43.4867    9.8794 O.3     1  UNL1       -0.4454
     14 C           5.0423   43.5141    9.4531 C.3     1  UNL1        0.2088
     15 C           5.0499   41.3658   10.7167 C.3     1  UNL1        0.0040
     16 C           4.4342   42.1271    9.5589 C.3     1  UNL1        0.0475
     17 C          13.0200   38.0014    7.6936 C.ar    1  UNL1        0.0549
     18 C          13.9726   37.6797    8.6719 C.ar    1  UNL1        0.0192
     19 C          15.1219   36.9541    8.3414 C.ar    1  UNL1        0.0507
     20 C          15.3171   36.5462    7.0139 C.ar    1  UNL1        0.0147
     21 C          14.3746   36.8617    6.0323 C.ar    1  UNL1        0.0014
     22 C          13.2300   37.5868    6.3712 C.ar    1  UNL1        0.0046
     23 C          17.1014   35.6543    9.3334 C.2     1  UNL1        0.2495
     24 O          17.2742   34.9521    8.3002 O.2     1  UNL1       -0.2698
     25 N          16.0645   36.6469    9.3777 N.am    1  UNL1       -0.2804
     26 H          15.9932   37.1721   10.2073 H       1  UNL1        0.1552
     27 C          17.9732   35.4570   10.5051 C.ar    1  UNL1        0.0537
     28 C          18.7821   34.3149   10.6049 C.ar    1  UNL1        0.0045
     29 C          19.6081   34.1283   11.7174 C.ar    1  UNL1        0.0001
     30 C          19.6317   35.0824   12.7381 C.ar    1  UNL1        0.0000
     31 C          18.8292   36.2228   12.6468 C.ar    1  UNL1        0.0001
     32 C          18.0031   36.4092   11.5347 C.ar    1  UNL1        0.0045
@<TRIPOS>BOND
     1    15    16    1
     2    16    14    1
     3    14    13    1
     4    11    13    1
     5    11     5    1
     6     6     7   ar
     7     8     3    1
     8     8     9   ar
     9     1    17    1
    10    18    19   ar
    11    19    25    1
    12    23    27    1
    13    28    29   ar
    14    30    31   ar
    15    32    27   ar
    16    20    21   ar
    17    22    17   ar
    18    10     5   ar
    19     3     1   am
    20    25    23   am
    21    11    12    2
    22     5     6   ar
    23     7     8   ar
    24     1     2    2
    25    17    18   ar
    26    19    20   ar
    27    23    24    2
    28    27    28   ar
    29    29    30   ar
    30    31    32   ar
    31    21    22   ar
    32     9    10   ar
    33     3     4    1
    34    25    26    1
@<TRIPOS>MOLECULE
MolPort-001-625-477 4696243 CSSS00132526133 ChemDiv-Y030-8192 LN00990780 MCULE-6331054327 PubChem-4036561 ZINC000004696243 ZINC04696243
 32 34 0 0 0
SMALL
GASTEIGER

@<TRIPOS>ATOM
      1 C           8.1917   41.9164    8.0465 C.2     1  UNL1        0.2495
      2 O           8.1314   43.1117    8.4443 O.2     1  UNL1       -0.2698
      3 N           7.1720   40.9729    8.4100 N.am    1  UNL1       -0.2804
      4 H           7.2914   40.0501    8.0885 H       1  UNL1        0.1552
      5 C           3.6446   41.7439   10.6625 C.ar    1  UNL1        0.0757
      6 C           4.8866   41.6514   11.3095 C.ar    1  UNL1        0.0077
      7 C           6.0524   41.3960   10.5828 C.ar    1  UNL1        0.0149
      8 C           5.9982   41.2327    9.1917 C.ar    1  UNL1        0.0505
      9 C           4.7658   41.3343    8.5411 C.ar    1  UNL1        0.0149
     10 C           3.6008   41.5891    9.2696 C.ar    1  UNL1        0.0077
     11 C           2.4267   42.0372   11.4635 C.2     1  UNL1        0.3412
     12 O           1.3136   42.0697   10.8738 O.2     1  UNL1       -0.2449
     13 O           2.4361   42.2868   12.8445 O.3     1  UNL1       -0.4454
     14 C           1.3195   42.1216   13.7089 C.3     1  UNL1        0.2088
     15 C          -0.6713   43.2530   14.6931 C.3     1  UNL1        0.0040
     16 C           0.6030   43.4470   13.8945 C.3     1  UNL1        0.0475
     17 C           9.3222   41.4822    7.2068 C.ar    1  UNL1        0.0549
     18 C          10.6426   41.7350    7.6077 C.ar    1  UNL1        0.0192
     19 C          11.7219   41.3274    6.8166 C.ar    1  UNL1        0.0507
     20 C          11.4730   40.6579    5.6096 C.ar    1  UNL1        0.0147
     21 C          10.1619   40.4016    5.2015 C.ar    1  UNL1        0.0014
     22 C           9.0903   40.8124    5.9976 C.ar    1  UNL1        0.0046
     23 C          13.9166   42.6598    6.8169 C.2     1  UNL1        0.2495
     24 O          13.5249   43.4777    5.9405 O.2     1  UNL1       -0.2698
     25 N          13.0532   41.6059    7.2711 N.am    1  UNL1       -0.2804
     26 H          13.4135   41.0116    7.9684 H       1  UNL1        0.1552
     27 C          15.2713   42.7881    7.3826 C.ar    1  UNL1        0.0537
     28 C          16.0742   43.8928    7.0607 C.ar    1  UNL1        0.0045
     29 C          17.3597   44.0131    7.5973 C.ar    1  UNL1        0.0001
     30 C          17.8517   43.0300    8.4598 C.ar    1  UNL1        0.0000
     31 C          17.0587   41.9263    8.7856 C.ar    1  UNL1        0.0001
     32 C          15.7736   41.8059    8.2489 C.ar    1  UNL1        0.0045
@<TRIPOS>BOND
     1    15    16    1
     2    16    14    1
     3    14    13    1
     4    11    13    1
     5    11     5    1
     6     6     7   ar
     7     8     3    1
     8     8     9   ar
     9     1    17    1
    10    18    19   ar
    11    19    25    1
    12    23    27    1
    13    28    29   ar
    14    30    31   ar
    15    32    27   ar
    16    20    21   ar
    17    22    17   ar
    18    10     5   ar
    19     3     1   am
    20    25    23   am
    21    11    12    2
    22     5     6   ar
    23     7     8   ar
    24     1     2    2
    25    17    18   ar
    26    19    20   ar
    27    23    24    2
    28    27    28   ar
    29    29    30   ar
    30    31    32   ar
    31    21    22   ar
    32     9    10   ar
    33     3     4    1
    34    25    26    1
@<TRIPOS>MOLECULE
MolPort-001-625-477 4696243 CSSS00132526133 ChemDiv-Y030-8192 LN00990780 MCULE-6331054327 PubChem-4036561 ZINC000004696243 ZINC04696243
 32 34 0 0 0
SMALL
GASTEIGER

@<TRIPOS>ATOM
      1 C           4.9368   41.4215   10.8369 C.2     1  UNL1        0.2495
      2 O           5.4701   40.3277   11.1687 O.2     1  UNL1       -0.2698
      3 N           5.6858   42.4097   10.1128 N.am    1  UNL1       -0.2804
      4 H           5.2194   43.2519    9.9069 H       1  UNL1        0.1552
      5 C           9.6868   42.1154    8.6926 C.ar    1  UNL1        0.0757
      6 C           9.3582   41.6447    9.9733 C.ar    1  UNL1        0.0077
      7 C           8.0492   41.7375   10.4534 C.ar    1  UNL1        0.0149
      8 C           7.0413   42.2996    9.6580 C.ar    1  UNL1        0.0505
      9 C           7.3607   42.7603    8.3780 C.ar    1  UNL1        0.0149
     10 C           8.6704   42.6673    7.8997 C.ar    1  UNL1        0.0077
     11 C          11.0850   41.9825    8.2049 C.2     1  UNL1        0.3412
     12 O          11.2895   41.9790    6.9614 O.2     1  UNL1       -0.2449
     13 O          12.2015   41.8551    9.0457 O.3     1  UNL1       -0.4454
     14 C          13.3550   41.0769    8.7543 C.3     1  UNL1        0.2088
     15 C          14.9378   39.8210   10.2135 C.3     1  UNL1        0.0040
     16 C          13.4953   39.9534    9.7656 C.3     1  UNL1        0.0475
     17 C           3.5347   41.6907   11.2017 C.ar    1  UNL1        0.0549
     18 C           3.2195   42.2408   12.4531 C.ar    1  UNL1        0.0192
     19 C           1.8913   42.4987   12.8083 C.ar    1  UNL1        0.0507
     20 C           0.8677   42.2018   11.8966 C.ar    1  UNL1        0.0147
     21 C           1.1711   41.6537   10.6481 C.ar    1  UNL1        0.0014
     22 C           2.5001   41.3992   10.3020 C.ar    1  UNL1        0.0046
     23 C           0.5817   42.6751   15.0096 C.2     1  UNL1        0.2495
     24 O          -0.2030   41.7303   14.7229 O.2     1  UNL1       -0.2698
     25 N           1.6204   43.0649   14.0978 N.am    1  UNL1       -0.2804
     26 H           2.2089   43.7985   14.3887 H       1  UNL1        0.1552
     27 C           0.4336   43.3838   16.2932 C.ar    1  UNL1        0.0537
     28 C          -0.7979   43.9511   16.6539 C.ar    1  UNL1        0.0045
     29 C          -0.9370   44.6240   17.8716 C.ar    1  UNL1        0.0001
     30 C           0.1541   44.7344   18.7375 C.ar    1  UNL1        0.0000
     31 C           1.3845   44.1724   18.3860 C.ar    1  UNL1        0.0001
     32 C           1.5235   43.4999   17.1685 C.ar    1  UNL1        0.0045
@<TRIPOS>BOND
     1    15    16    1
     2    16    14    1
     3    14    13    1
     4    11    13    1
     5    11     5    1
     6     6     7   ar
     7     8     3    1
     8     8     9   ar
     9     1    17    1
    10    18    19   ar
    11    19    25    1
    12    23    27    1
    13    28    29   ar
    14    30    31   ar
    15    32    27   ar
    16    20    21   ar
    17    22    17   ar
    18    10     5   ar
    19     3     1   am
    20    25    23   am
    21    11    12    2
    22     5     6   ar
    23     7     8   ar
    24     1     2    2
    25    17    18   ar
    26    19    20   ar
    27    23    24    2
    28    27    28   ar
    29    29    30   ar
    30    31    32   ar
    31    21    22   ar
    32     9    10   ar
    33     3     4    1
    34    25    26    1
@<TRIPOS>MOLECULE
MolPort-001-625-477 4696243 CSSS00132526133 ChemDiv-Y030-8192 LN00990780 MCULE-6331054327 PubChem-4036561 ZINC000004696243 ZINC04696243
 32 34 0 0 0
SMALL
GASTEIGER

@<TRIPOS>ATOM
      1 C           1.6443   42.2718   12.1773 C.2     1  UNL1        0.2495
      2 O           1.0888   42.0158   11.0743 O.2     1  UNL1       -0.2698
      3 N           3.0748   42.3506   12.2742 N.am    1  UNL1       -0.2804
      4 H           3.4463   42.5282   13.1684 H       1  UNL1        0.1552
      5 C           5.9218   41.8483    9.1511 C.ar    1  UNL1        0.0757
      6 C           4.8212   42.7002    8.9698 C.ar    1  UNL1        0.0077
      7 C           3.8773   42.8724    9.9857 C.ar    1  UNL1        0.0149
      8 C           4.0195   42.1979   11.2061 C.ar    1  UNL1        0.0505
      9 C           5.1190   41.3567   11.3959 C.ar    1  UNL1        0.0149
     10 C           6.0616   41.1852   10.3786 C.ar    1  UNL1        0.0077
     11 C           6.9183   41.7039    8.0572 C.2     1  UNL1        0.3412
     12 O           6.6283   42.1557    6.9171 O.2     1  UNL1       -0.2449
     13 O           8.1700   41.0880    8.2110 O.3     1  UNL1       -0.4454
     14 C           9.3656   41.7579    8.5890 C.3     1  UNL1        0.2088
     15 C          11.6092   41.3531    9.5961 C.3     1  UNL1        0.0040
     16 C          10.1638   40.8971    9.5515 C.3     1  UNL1        0.0475
     17 C           0.8183   42.4850   13.3789 C.ar    1  UNL1        0.0549
     18 C           1.4170   42.8270   14.6006 C.ar    1  UNL1        0.0192
     19 C           0.6411   43.0304   15.7466 C.ar    1  UNL1        0.0507
     20 C          -0.7519   42.8895   15.6652 C.ar    1  UNL1        0.0147
     21 C          -1.3578   42.5490   14.4535 C.ar    1  UNL1        0.0014
     22 C          -0.5751   42.3476   13.3143 C.ar    1  UNL1        0.0046
     23 C           2.0000   44.6033   17.2536 C.2     1  UNL1        0.2495
     24 O           2.0700   45.5181   16.3882 O.2     1  UNL1       -0.2698
     25 N           1.2995   43.3819   16.9711 N.am    1  UNL1       -0.2804
     26 H           1.2680   42.7152   17.6949 H       1  UNL1        0.1552
     27 C           2.6399   44.7904   18.5678 C.ar    1  UNL1        0.0537
     28 C           3.4924   45.8816   18.7944 C.ar    1  UNL1        0.0045
     29 C           4.0997   46.0575   20.0414 C.ar    1  UNL1        0.0001
     30 C           3.8589   45.1441   21.0711 C.ar    1  UNL1        0.0000
     31 C           3.0113   44.0544   20.8540 C.ar    1  UNL1        0.0001
     32 C           2.4043   43.8783   19.6071 C.ar    1  UNL1        0.0045
@<TRIPOS>BOND
     1    15    16    1
     2    16    14    1
     3    14    13    1
     4    11    13    1
     5    11     5    1
     6     6     7   ar
     7     8     3    1
     8     8     9   ar
     9     1    17    1
    10    18    19   ar
    11    19    25    1
    12    23    27    1
    13    28    29   ar
    14    30    31   ar
    15    32    27   ar
    16    20    21   ar
    17    22    17   ar
    18    10     5   ar
    19     3     1   am
    20    25    23   am
    21    11    12    2
    22     5     6   ar
    23     7     8   ar
    24     1     2    2
    25    17    18   ar
    26    19    20   ar
    27    23    24    2
    28    27    28   ar
    29    29    30   ar
    30    31    32   ar
    31    21    22   ar
    32     9    10   ar
    33     3     4    1
    34    25    26    1
@<TRIPOS>MOLECULE
MolPort-001-625-477 4696243 CSSS00132526133 ChemDiv-Y030-8192 LN00990780 MCULE-6331054327 PubChem-4036561 ZINC000004696243 ZINC04696243
 32 34 0 0 0
SMALL
GASTEIGER

@<TRIPOS>ATOM
      1 C           6.2876   41.2762   10.8867 C.2     1  UNL1        0.2495
      2 O           6.8558   40.8869   11.9432 O.2     1  UNL1       -0.2698
      3 N           7.0606   41.6380    9.7319 N.am    1  UNL1       -0.2804
      4 H           6.5579   41.9580    8.9483 H       1  UNL1        0.1552
      5 C          11.2870   41.4116    9.2873 C.ar    1  UNL1        0.0757
      6 C          10.7205   42.3551   10.1583 C.ar    1  UNL1        0.0077
      7 C           9.3344   42.4423   10.3120 C.ar    1  UNL1        0.0149
      8 C           8.4874   41.5824    9.5994 C.ar    1  UNL1        0.0505
      9 C           9.0465   40.6341    8.7387 C.ar    1  UNL1        0.0149
     10 C          10.4329   40.5488    8.5858 C.ar    1  UNL1        0.0077
     11 C          12.7665   41.3319    9.1631 C.2     1  UNL1        0.3412
     12 O          13.3294   41.9972    8.2529 O.2     1  UNL1       -0.2449
     13 O          13.5841   40.5540    9.9974 O.3     1  UNL1       -0.4454
     14 C          14.4460   39.5146    9.5524 C.3     1  UNL1        0.2088
     15 C          16.6892   39.0864   10.5509 C.3     1  UNL1        0.0040
     16 C          15.8918   39.9736    9.6148 C.3     1  UNL1        0.0475
     17 C           4.8176   41.3672   10.8390 C.ar    1  UNL1        0.0549
     18 C           4.0749   41.4908   12.0227 C.ar    1  UNL1        0.0192
     19 C           2.6792   41.5767   11.9870 C.ar    1  UNL1        0.0507
     20 C           2.0213   41.5390   10.7490 C.ar    1  UNL1        0.0147
     21 C           2.7517   41.4160    9.5646 C.ar    1  UNL1        0.0014
     22 C           4.1450   41.3305    9.6097 C.ar    1  UNL1        0.0046
     23 C           0.8412   42.5603   13.4857 C.2     1  UNL1        0.2495
     24 O           0.3643   43.2908   12.5749 O.2     1  UNL1       -0.2698
     25 N           1.9649   41.7055   13.2240 N.am    1  UNL1       -0.2804
     26 H           2.2783   41.1488   13.9731 H       1  UNL1        0.1552
     27 C           0.2380   42.5816   14.8301 C.ar    1  UNL1        0.0537
     28 C          -0.9332   41.8559   15.0953 C.ar    1  UNL1        0.0045
     29 C          -1.5050   41.8775   16.3710 C.ar    1  UNL1        0.0001
     30 C          -0.9100   42.6247   17.3909 C.ar    1  UNL1        0.0000
     31 C           0.2565   43.3506   17.1354 C.ar    1  UNL1        0.0001
     32 C           0.8281   43.3292   15.8599 C.ar    1  UNL1        0.0045
@<TRIPOS>BOND
     1    15    16    1
     2    16    14    1
     3    14    13    1
     4    11    13    1
     5    11     5    1
     6     6     7   ar
     7     8     3    1
     8     8     9   ar
     9     1    17    1
    10    18    19   ar
    11    19    25    1
    12    23    27    1
    13    28    29   ar
    14    30    31   ar
    15    32    27   ar
    16    20    21   ar
    17    22    17   ar
    18    10     5   ar
    19     3     1   am
    20    25    23   am
    21    11    12    2
    22     5     6   ar
    23     7     8   ar
    24     1     2    2
    25    17    18   ar
    26    19    20   ar
    27    23    24    2
    28    27    28   ar
    29    29    30   ar
    30    31    32   ar
    31    21    22   ar
    32     9    10   ar
    33     3     4    1
    34    25    26    1
@<TRIPOS>MOLECULE
MolPort-001-625-477 4696243 CSSS00132526133 ChemDiv-Y030-8192 LN00990780 MCULE-6331054327 PubChem-4036561 ZINC000004696243 ZINC04696243
 32 34 0 0 0
SMALL
GASTEIGER

@<TRIPOS>ATOM
      1 C           6.8626   41.4379   10.7907 C.2     1  UNL1        0.2495
      2 O           7.3866   41.4899   11.9367 O.2     1  UNL1       -0.2698
      3 N           7.6749   41.2340    9.6243 N.am    1  UNL1       -0.2804
      4 H           7.2076   41.2291    8.7578 H       1  UNL1        0.1552
      5 C          11.8918   40.6607    9.5964 C.ar    1  UNL1        0.0757
      6 C          11.1671   40.6134    8.3954 C.ar    1  UNL1        0.0077
      7 C           9.7819   40.7972    8.3901 C.ar    1  UNL1        0.0149
      8 C           9.0949   41.0369    9.5881 C.ar    1  UNL1        0.0505
      9 C           9.8127   41.0955   10.7855 C.ar    1  UNL1        0.0149
     10 C          11.1979   40.9108   10.7889 C.ar    1  UNL1        0.0077
     11 C          13.3674   40.4814    9.5637 C.2     1  UNL1        0.3412
     12 O          13.9493   40.0990   10.6140 O.2     1  UNL1       -0.2449
     13 O          14.1623   40.7165    8.4312 O.3     1  UNL1       -0.4454
     14 C          15.2878   41.5843    8.3929 C.3     1  UNL1        0.2088
     15 C          13.7521   42.8387    6.8829 C.3     1  UNL1        0.0040
     16 C          15.1988   42.5008    7.1859 C.3     1  UNL1        0.0475
     17 C           5.4044   41.5946   10.6465 C.ar    1  UNL1        0.0549
     18 C           4.5862   41.7029   11.7809 C.ar    1  UNL1        0.0192
     19 C           3.2011   41.8509   11.6537 C.ar    1  UNL1        0.0507
     20 C           2.6307   41.8913   10.3731 C.ar    1  UNL1        0.0147
     21 C           3.4367   41.7842    9.2372 C.ar    1  UNL1        0.0014
     22 C           4.8188   41.6364    9.3737 C.ar    1  UNL1        0.0046
     23 C           0.9967   42.2175   12.9179 C.2     1  UNL1        0.2495
     24 O           0.3125   42.3533   11.8672 O.2     1  UNL1       -0.2698
     25 N           2.4077   41.9610   12.8432 N.am    1  UNL1       -0.2804
     26 H           2.8805   41.8489   13.6995 H       1  UNL1        0.1552
     27 C           0.3423   42.3197   14.2343 C.ar    1  UNL1        0.0537
     28 C          -0.8530   41.6305   14.4892 C.ar    1  UNL1        0.0045
     29 C          -1.4736   41.7289   15.7382 C.ar    1  UNL1        0.0001
     30 C          -0.9035   42.5169   16.7415 C.ar    1  UNL1        0.0000
     31 C           0.2868   43.2069   16.4961 C.ar    1  UNL1        0.0001
     32 C           0.9070   43.1087   15.2472 C.ar    1  UNL1        0.0045
@<TRIPOS>BOND
     1    15    16    1
     2    16    14    1
     3    14    13    1
     4    11    13    1
     5    11     5    1
     6     6     7   ar
     7     8     3    1
     8     8     9   ar
     9     1    17    1
    10    18    19   ar
    11    19    25    1
    12    23    27    1
    13    28    29   ar
    14    30    31   ar
    15    32    27   ar
    16    20    21   ar
    17    22    17   ar
    18    10     5   ar
    19     3     1   am
    20    25    23   am
    21    11    12    2
    22     5     6   ar
    23     7     8   ar
    24     1     2    2
    25    17    18   ar
    26    19    20   ar
    27    23    24    2
    28    27    28   ar
    29    29    30   ar
    30    31    32   ar
    31    21    22   ar
    32     9    10   ar
    33     3     4    1
    34    25    26    1
@<TRIPOS>MOLECULE
MolPort-001-625-477 4696243 CSSS00132526133 ChemDiv-Y030-8192 LN00990780 MCULE-6331054327 PubChem-4036561 ZINC000004696243 ZINC04696243
 32 34 0 0 0
SMALL
GASTEIGER

@<TRIPOS>ATOM
      1 C           2.7996   42.3669   11.1964 C.2     1  UNL1        0.2495
      2 O           1.9863   41.4059   11.1211 O.2     1  UNL1       -0.2698
      3 N           2.6858   43.3401   12.2461 N.am    1  UNL1       -0.2804
      4 H           3.3359   44.0793   12.2334 H       1  UNL1        0.1552
      5 C          -0.2136   43.4109   15.3605 C.ar    1  UNL1        0.0757
      6 C           1.0151   42.7618   15.5575 C.ar    1  UNL1        0.0077
      7 C           1.9751   42.7284   14.5427 C.ar    1  UNL1        0.0149
      8 C           1.7254   43.3491   13.3110 C.ar    1  UNL1        0.0505
      9 C           0.5080   44.0059   13.1132 C.ar    1  UNL1        0.0149
     10 C          -0.4512   44.0377   14.1290 C.ar    1  UNL1        0.0077
     11 C          -1.2045   43.4452   16.4685 C.2     1  UNL1        0.3412
     12 O          -2.4283   43.5197   16.1777 O.2     1  UNL1       -0.2449
     13 O          -0.8631   43.4043   17.8292 O.3     1  UNL1       -0.4454
     14 C          -1.1617   42.3299   18.7111 C.3     1  UNL1        0.2088
     15 C          -2.4269   40.2647   18.1227 C.3     1  UNL1        0.0040
     16 C          -1.1171   41.0111   17.9604 C.3     1  UNL1        0.0475
     17 C           3.8721   42.4963   10.1941 C.ar    1  UNL1        0.0549
     18 C           5.0913   41.8245   10.3679 C.ar    1  UNL1        0.0192
     19 C           6.1153   41.9423    9.4222 C.ar    1  UNL1        0.0507
     20 C           5.9130   42.7431    8.2888 C.ar    1  UNL1        0.0147
     21 C           4.7027   43.4163    8.1065 C.ar    1  UNL1        0.0014
     22 C           3.6858   43.2931    9.0560 C.ar    1  UNL1        0.0046
     23 C           8.4950   41.7062   10.3567 C.2     1  UNL1        0.2495
     24 O           8.4960   42.8496   10.8890 O.2     1  UNL1       -0.2698
     25 N           7.3421   41.2331    9.6431 N.am    1  UNL1       -0.2804
     26 H           7.4000   40.3258    9.2654 H       1  UNL1        0.1552
     27 C           9.6864   40.8464   10.4704 C.ar    1  UNL1        0.0537
     28 C          10.6142   41.0503   11.5030 C.ar    1  UNL1        0.0045
     29 C          11.7446   40.2345   11.6094 C.ar    1  UNL1        0.0001
     30 C          11.9556   39.2086   10.6844 C.ar    1  UNL1        0.0000
     31 C          11.0366   38.9986    9.6527 C.ar    1  UNL1        0.0001
     32 C           9.9065   39.8145    9.5462 C.ar    1  UNL1        0.0045
@<TRIPOS>BOND
     1    15    16    1
     2    16    14    1
     3    14    13    1
     4    11    13    1
     5    11     5    1
     6     6     7   ar
     7     8     3    1
     8     8     9   ar
     9     1    17    1
    10    18    19   ar
    11    19    25    1
    12    23    27    1
    13    28    29   ar
    14    30    31   ar
    15    32    27   ar
    16    20    21   ar
    17    22    17   ar
    18    10     5   ar
    19     3     1   am
    20    25    23   am
    21    11    12    2
    22     5     6   ar
    23     7     8   ar
    24     1     2    2
    25    17    18   ar
    26    19    20   ar
    27    23    24    2
    28    27    28   ar
    29    29    30   ar
    30    31    32   ar
    31    21    22   ar
    32     9    10   ar
    33     3     4    1
    34    25    26    1
@<TRIPOS>MOLECULE
MolPort-001-625-477 4696243 CSSS00132526133 ChemDiv-Y030-8192 LN00990780 MCULE-6331054327 PubChem-4036561 ZINC000004696243 ZINC04696243
 32 34 0 0 0
SMALL
GASTEIGER

@<TRIPOS>ATOM
      1 C           3.1931   41.9946   11.7375 C.2     1  UNL1        0.2495
      2 O           2.9568   41.2487   10.7483 O.2     1  UNL1       -0.2698
      3 N           4.5293   42.4437   12.0113 N.am    1  UNL1       -0.2804
      4 H           4.6503   43.0023   12.8129 H       1  UNL1        0.1552
      5 C           7.9788   41.6256    9.6570 C.ar    1  UNL1        0.0757
      6 C           8.0535   41.5713   11.0575 C.ar    1  UNL1        0.0077
      7 C           6.9295   41.8402   11.8429 C.ar    1  UNL1        0.0149
      8 C           5.7060   42.1645   11.2407 C.ar    1  UNL1        0.0505
      9 C           5.6233   42.2097    9.8466 C.ar    1  UNL1        0.0149
     10 C           6.7486   41.9411    9.0628 C.ar    1  UNL1        0.0077
     11 C           9.1886   41.3136    8.8510 C.2     1  UNL1        0.3412
     12 O           9.7825   40.2216    9.0573 O.2     1  UNL1       -0.2449
     13 O           9.7200   42.1651    7.8700 O.3     1  UNL1       -0.4454
     14 C           9.9747   41.7937    6.5215 C.3     1  UNL1        0.2088
     15 C          12.2406   42.2543    7.4519 C.3     1  UNL1        0.0040
     16 C          11.4390   42.0152    6.1873 C.3     1  UNL1        0.0475
     17 C           2.0894   42.4033   12.6242 C.ar    1  UNL1        0.0549
     18 C           2.2826   43.4120   13.5798 C.ar    1  UNL1        0.0192
     19 C           1.2410   43.8058   14.4265 C.ar    1  UNL1        0.0507
     20 C          -0.0091   43.1804   14.3122 C.ar    1  UNL1        0.0147
     21 C          -0.2117   42.1748   13.3639 C.ar    1  UNL1        0.0014
     22 C           0.8342   41.7878   12.5229 C.ar    1  UNL1        0.0046
     23 C           0.5046   45.6466   16.0577 C.2     1  UNL1        0.2495
     24 O          -0.7257   45.4646   15.8485 O.2     1  UNL1       -0.2698
     25 N           1.4870   44.8439   15.3848 N.am    1  UNL1       -0.2804
     26 H           2.4293   45.0256   15.6047 H       1  UNL1        0.1552
     27 C           0.9384   46.6902   17.0034 C.ar    1  UNL1        0.0537
     28 C           2.2829   47.0882   17.0550 C.ar    1  UNL1        0.0045
     29 C           2.6935   48.0778   17.9534 C.ar    1  UNL1        0.0001
     30 C           1.7629   48.6768   18.8064 C.ar    1  UNL1        0.0000
     31 C           0.4218   48.2863   18.7618 C.ar    1  UNL1        0.0001
     32 C           0.0114   47.2967   17.8638 C.ar    1  UNL1        0.0045
@<TRIPOS>BOND
     1    15    16    1
     2    16    14    1
     3    14    13    1
     4    11    13    1
     5    11     5    1
     6     6     7   ar
     7     8     3    1
     8     8     9   ar
     9     1    17    1
    10    18    19   ar
    11    19    25    1
    12    23    27    1
    13    28    29   ar
    14    30    31   ar
    15    32    27   ar
    16    20    21   ar
    17    22    17   ar
    18    10     5   ar
    19     3     1   am
    20    25    23   am
    21    11    12    2
    22     5     6   ar
    23     7     8   ar
    24     1     2    2
    25    17    18   ar
    26    19    20   ar
    27    23    24    2
    28    27    28   ar
    29    29    30   ar
    30    31    32   ar
    31    21    22   ar
    32     9    10   ar
    33     3     4    1
    34    25    26    1
@<TRIPOS>MOLECULE
MolPort-001-625-477 4696243 CSSS00132526133 ChemDiv-Y030-8192 LN00990780 MCULE-6331054327 PubChem-4036561 ZINC000004696243 ZINC04696243
 32 34 0 0 0
SMALL
GASTEIGER

@<TRIPOS>ATOM
      1 C           6.9628   41.4273   10.3749 C.2     1  UNL1        0.2495
      2 O           7.5614   41.7557   11.4353 O.2     1  UNL1       -0.2698
      3 N           7.7009   40.9751    9.2291 N.am    1  UNL1       -0.2804
      4 H           7.1761   40.7587    8.4248 H       1  UNL1        0.1552
      5 C          11.9249   40.5014    9.0169 C.ar    1  UNL1        0.0757
      6 C          11.1224   40.1618    7.9167 C.ar    1  UNL1        0.0077
      7 C           9.7341   40.3096    7.9734 C.ar    1  UNL1        0.0149
      8 C           9.1216   40.8055    9.1326 C.ar    1  UNL1        0.0505
      9 C           9.9166   41.1552   10.2272 C.ar    1  UNL1        0.0149
     10 C          11.3048   41.0060   10.1689 C.ar    1  UNL1        0.0077
     11 C          13.4006   40.3512    8.9155 C.2     1  UNL1        0.3412
     12 O          14.0994   41.3861    8.7468 O.2     1  UNL1       -0.2449
     13 O          14.0720   39.1210    8.9914 O.3     1  UNL1       -0.4454
     14 C          13.6117   37.9859    9.7131 C.3     1  UNL1        0.2088
     15 C          13.7830   35.5005    9.7852 C.3     1  UNL1        0.0040
     16 C          13.8227   36.7258    8.8930 C.3     1  UNL1        0.0475
     17 C           5.4933   41.5149   10.3086 C.ar    1  UNL1        0.0549
     18 C           4.7532   41.8997   11.4365 C.ar    1  UNL1        0.0192
     19 C           3.3580   41.9845   11.3832 C.ar    1  UNL1        0.0507
     20 C           2.6980   41.6804   10.1836 C.ar    1  UNL1        0.0147
     21 C           3.4258   41.2961    9.0549 C.ar    1  UNL1        0.0014
     22 C           4.8187   41.2138    9.1174 C.ar    1  UNL1        0.0046
     23 C           1.2217   42.4542   12.7275 C.2     1  UNL1        0.2495
     24 O           0.4494   42.1244   11.7865 O.2     1  UNL1       -0.2698
     25 N           2.6465   42.3858   12.5619 N.am    1  UNL1       -0.2804
     26 H           3.1928   42.6415   13.3400 H       1  UNL1        0.1552
     27 C           0.6572   42.9110   14.0099 C.ar    1  UNL1        0.0537
     28 C          -0.1004   42.0372   14.8045 C.ar    1  UNL1        0.0045
     29 C          -0.6361   42.4720   16.0205 C.ar    1  UNL1        0.0001
     30 C          -0.4183   43.7833   16.4511 C.ar    1  UNL1        0.0000
     31 C           0.3349   44.6603   15.6658 C.ar    1  UNL1        0.0001
     32 C           0.8704   44.2257   14.4499 C.ar    1  UNL1        0.0045
@<TRIPOS>BOND
     1    15    16    1
     2    16    14    1
     3    14    13    1
     4    11    13    1
     5    11     5    1
     6     6     7   ar
     7     8     3    1
     8     8     9   ar
     9     1    17    1
    10    18    19   ar
    11    19    25    1
    12    23    27    1
    13    28    29   ar
    14    30    31   ar
    15    32    27   ar
    16    20    21   ar
    17    22    17   ar
    18    10     5   ar
    19     3     1   am
    20    25    23   am
    21    11    12    2
    22     5     6   ar
    23     7     8   ar
    24     1     2    2
    25    17    18   ar
    26    19    20   ar
    27    23    24    2
    28    27    28   ar
    29    29    30   ar
    30    31    32   ar
    31    21    22   ar
    32     9    10   ar
    33     3     4    1
    34    25    26    1
@<TRIPOS>MOLECULE
MolPort-001-625-477 4696243 CSSS00132526133 ChemDiv-Y030-8192 LN00990780 MCULE-6331054327 PubChem-4036561 ZINC000004696243 ZINC04696243
 32 34 0 0 0
SMALL
GASTEIGER

@<TRIPOS>ATOM
      1 C           7.0447   41.7888    8.6592 C.2     1  UNL1        0.2495
      2 O           6.8140   43.0287    8.6537 O.2     1  UNL1       -0.2698
      3 N           6.2152   40.8945    9.4168 N.am    1  UNL1       -0.2804
      4 H           6.4643   39.9422    9.3996 H       1  UNL1        0.1552
      5 C           2.8122   41.8660   11.7805 C.ar    1  UNL1        0.0757
      6 C           3.0755   42.5777   10.5998 C.ar    1  UNL1        0.0077
      7 C           4.1906   42.2712    9.8156 C.ar    1  UNL1        0.0149
      8 C           5.0625   41.2418   10.1959 C.ar    1  UNL1        0.0505
      9 C           4.7994   40.5229   11.3649 C.ar    1  UNL1        0.0149
     10 C           3.6840   40.8312   12.1483 C.ar    1  UNL1        0.0077
     11 C           1.6056   42.2043   12.5806 C.2     1  UNL1        0.3412
     12 O           0.5964   42.6623   11.9809 O.2     1  UNL1       -0.2449
     13 O           1.5175   42.0500   13.9728 O.3     1  UNL1       -0.4454
     14 C           0.3361   42.2432   14.7398 C.3     1  UNL1        0.2088
     15 C           0.5960   44.6822   15.1819 C.3     1  UNL1        0.0040
     16 C           0.5723   43.2997   15.8041 C.3     1  UNL1        0.0475
     17 C           8.1799   41.2537    7.8867 C.ar    1  UNL1        0.0549
     18 C           9.3404   40.8149    8.5414 C.ar    1  UNL1        0.0192
     19 C          10.4232   40.3065    7.8163 C.ar    1  UNL1        0.0507
     20 C          10.3399   40.2371    6.4180 C.ar    1  UNL1        0.0147
     21 C           9.1888   40.6716    5.7566 C.ar    1  UNL1        0.0014
     22 C           8.1126   41.1781    6.4887 C.ar    1  UNL1        0.0046
     23 C          12.4374   40.6669    9.3670 C.2     1  UNL1        0.2495
     24 O          12.1888   41.8891    9.5541 O.2     1  UNL1       -0.2698
     25 N          11.5861   39.8674    8.5315 N.am    1  UNL1       -0.2804
     26 H          11.8263   38.9170    8.4399 H       1  UNL1        0.1552
     27 C          13.6103   40.0526   10.0141 C.ar    1  UNL1        0.0537
     28 C          14.8774   40.1387    9.4177 C.ar    1  UNL1        0.0045
     29 C          15.9893   39.5547   10.0321 C.ar    1  UNL1        0.0001
     30 C          15.8425   38.8805   11.2472 C.ar    1  UNL1        0.0000
     31 C          14.5840   38.7898   11.8480 C.ar    1  UNL1        0.0001
     32 C          13.4723   39.3735   11.2336 C.ar    1  UNL1        0.0045
@<TRIPOS>BOND
     1    15    16    1
     2    16    14    1
     3    14    13    1
     4    11    13    1
     5    11     5    1
     6     6     7   ar
     7     8     3    1
     8     8     9   ar
     9     1    17    1
    10    18    19   ar
    11    19    25    1
    12    23    27    1
    13    28    29   ar
    14    30    31   ar
    15    32    27   ar
    16    20    21   ar
    17    22    17   ar
    18    10     5   ar
    19     3     1   am
    20    25    23   am
    21    11    12    2
    22     5     6   ar
    23     7     8   ar
    24     1     2    2
    25    17    18   ar
    26    19    20   ar
    27    23    24    2
    28    27    28   ar
    29    29    30   ar
    30    31    32   ar
    31    21    22   ar
    32     9    10   ar
    33     3     4    1
    34    25    26    1
