@<TRIPOS>MOLECULE
MolPort-007-714-559 CHEMBL1734373 ChemDiv-E002-1899 MCULE-5246444866 PubChem-16016863 ZINC000006780261
 27 29 0 0 0
SMALL
GASTEIGER

@<TRIPOS>ATOM
      1 C           8.2874   42.3610    8.1625 C.ar    1  UNL1        0.1905
      2 C          10.5401   41.6644    7.7288 C.ar    1  UNL1        0.1904
      3 N           8.5105   42.0436    6.8656 N.ar    1  UNL1       -0.1239
      4 N           9.7601   41.6504    6.6255 N.ar    1  UNL1       -0.1240
      5 S           9.6941   42.1850    9.0852 S.2     1  UNL1       -0.0151
      6 C          13.0096   42.1772    7.4417 C.2     1  UNL1        0.3097
      7 N          11.9227   41.2969    7.7441 N.am    1  UNL1       -0.2468
      8 N          14.3466   41.6697    7.4910 N.am    1  UNL1       -0.2662
      9 O          12.7916   43.3681    7.0891 O.2     1  UNL1       -0.2521
     10 H          12.1433   40.3671    7.9807 H       1  UNL1        0.1584
     11 H          14.4543   40.6923    7.5391 H       1  UNL1        0.1565
     12 C          15.5430   42.4592    7.4764 C.ar    1  UNL1        0.0793
     13 C          15.6717   43.4542    6.5007 C.ar    1  UNL1        0.0170
     14 C          16.8272   44.2371    6.4330 C.ar    1  UNL1        0.0014
     15 C          17.8717   44.0192    7.3338 C.ar    1  UNL1        0.0024
     16 C          17.7656   43.0105    8.2941 C.ar    1  UNL1        0.0309
     17 C          16.6109   42.2250    8.3673 C.ar    1  UNL1        0.1535
     18 F          16.5711   41.2076    9.2623 F       1  UNL1       -0.2029
     19 N           7.0274   42.8691    8.6416 N.pl3   1  UNL1       -0.2659
     20 C           6.0930   42.0585    9.3834 C.ar    1  UNL1        0.0531
     21 C           6.2976   41.8186   10.7523 C.ar    1  UNL1        0.0149
     22 C           5.3824   41.0577   11.4853 C.ar    1  UNL1        0.0013
     23 C           4.2484   40.5352   10.8593 C.ar    1  UNL1        0.0001
     24 C           4.0275   40.7763    9.5012 C.ar    1  UNL1        0.0013
     25 C           4.9427   41.5373    8.7687 C.ar    1  UNL1        0.0149
     26 C           6.6755   44.2516    8.3305 C.3     1  UNL1        0.0975
     27 C           5.1739   44.3797    8.1538 C.3     1  UNL1        0.0236
@<TRIPOS>BOND
     1     1    19    1
     2     1     5   ar
     3    26    19    1
     4    26    27    1
     5    21    22   ar
     6    23    24   ar
     7    25    20   ar
     8     2     7    1
     9     2     5   ar
    10     6     8   am
    11    13    14   ar
    12    15    16   ar
    13    17    18    1
    14    17    12   ar
    15    19    20    1
    16     3     4   ar
    17     7     6   am
    18     8    12    1
    19     1     3   ar
    20    20    21   ar
    21    22    23   ar
    22    24    25   ar
    23     2     4   ar
    24     6     9    2
    25    12    13   ar
    26    14    15   ar
    27    16    17   ar
    28     7    10    1
    29     8    11    1
@<TRIPOS>MOLECULE
MolPort-007-714-559 CHEMBL1734373 ChemDiv-E002-1899 MCULE-5246444866 PubChem-16016863 ZINC000006780261
 27 29 0 0 0
SMALL
GASTEIGER

@<TRIPOS>ATOM
      1 C           8.3833   42.2821    8.2052 C.ar    1  UNL1        0.1905
      2 C          10.5803   41.5376    7.5995 C.ar    1  UNL1        0.1904
      3 N           8.4379   41.7145    6.9774 N.ar    1  UNL1       -0.1239
      4 N           9.6570   41.2951    6.6432 N.ar    1  UNL1       -0.1240
      5 S           9.9095   42.3092    8.9341 S.2     1  UNL1       -0.0151
      6 C          13.0370   42.1374    7.3789 C.2     1  UNL1        0.3097
      7 N          11.9652   41.1957    7.4890 N.am    1  UNL1       -0.2468
      8 N          14.3782   41.6507    7.2688 N.am    1  UNL1       -0.2662
      9 O          12.8011   43.3750    7.3294 O.2     1  UNL1       -0.2521
     10 H          12.1986   40.2393    7.4888 H       1  UNL1        0.1584
     11 H          14.4937   40.6920    7.0772 H       1  UNL1        0.1565
     12 C          15.5685   42.4365    7.4130 C.ar    1  UNL1        0.0793
     13 C          16.3886   42.2044    8.5230 C.ar    1  UNL1        0.0170
     14 C          17.5493   42.9577    8.7182 C.ar    1  UNL1        0.0014
     15 C          17.8906   43.9619    7.8100 C.ar    1  UNL1        0.0024
     16 C          17.0649   44.2209    6.7136 C.ar    1  UNL1        0.0309
     17 C          15.9029   43.4692    6.5126 C.ar    1  UNL1        0.1535
     18 F          15.0868   43.7953    5.4804 F       1  UNL1       -0.2029
     19 N           7.1824   42.8617    8.7502 N.pl3   1  UNL1       -0.2659
     20 C           6.2422   42.1050    9.5400 C.ar    1  UNL1        0.0531
     21 C           4.9835   41.7723    9.0128 C.ar    1  UNL1        0.0149
     22 C           4.0770   41.0152    9.7603 C.ar    1  UNL1        0.0013
     23 C           4.4225   40.5755   11.0403 C.ar    1  UNL1        0.0001
     24 C           5.6757   40.8897   11.5714 C.ar    1  UNL1        0.0013
     25 C           6.5817   41.6467   10.8235 C.ar    1  UNL1        0.0149
     26 C           6.8967   44.2636    8.4585 C.3     1  UNL1        0.0975
     27 C           7.8019   45.1617    9.2812 C.3     1  UNL1        0.0236
@<TRIPOS>BOND
     1     1    19    1
     2     1     5   ar
     3    26    19    1
     4    26    27    1
     5    21    22   ar
     6    23    24   ar
     7    25    20   ar
     8     2     7    1
     9     2     5   ar
    10     6     8   am
    11    13    14   ar
    12    15    16   ar
    13    17    18    1
    14    17    12   ar
    15    19    20    1
    16     3     4   ar
    17     7     6   am
    18     8    12    1
    19     1     3   ar
    20    20    21   ar
    21    22    23   ar
    22    24    25   ar
    23     2     4   ar
    24     6     9    2
    25    12    13   ar
    26    14    15   ar
    27    16    17   ar
    28     7    10    1
    29     8    11    1
@<TRIPOS>MOLECULE
MolPort-007-714-559 CHEMBL1734373 ChemDiv-E002-1899 MCULE-5246444866 PubChem-16016863 ZINC000006780261
 27 29 0 0 0
SMALL
GASTEIGER

@<TRIPOS>ATOM
      1 C           8.0105   41.5586    8.7897 C.ar    1  UNL1        0.1905
      2 C          10.0480   41.3014    7.5528 C.ar    1  UNL1        0.1904
      3 N           8.0534   40.4210    8.0572 N.ar    1  UNL1       -0.1239
      4 N           9.1878   40.2746    7.3750 N.ar    1  UNL1       -0.1240
      5 S           9.4208   42.4700    8.5858 S.2     1  UNL1       -0.0151
      6 C          12.4563   42.0990    7.4651 C.2     1  UNL1        0.3097
      7 N          11.3317   41.3958    6.9281 N.am    1  UNL1       -0.2468
      8 N          13.6814   42.1145    6.7256 N.am    1  UNL1       -0.2662
      9 O          12.3566   42.7370    8.5481 O.2     1  UNL1       -0.2521
     10 H          11.4505   40.9420    6.0625 H       1  UNL1        0.1584
     11 H          13.6453   41.8082    5.7906 H       1  UNL1        0.1565
     12 C          14.9565   42.5365    7.2265 C.ar    1  UNL1        0.0793
     13 C          15.6379   41.6906    8.1088 C.ar    1  UNL1        0.0170
     14 C          16.8749   42.0660    8.6396 C.ar    1  UNL1        0.0014
     15 C          17.4333   43.3007    8.3027 C.ar    1  UNL1        0.0024
     16 C          16.7491   44.1649    7.4448 C.ar    1  UNL1        0.0309
     17 C          15.5115   43.7937    6.9095 C.ar    1  UNL1        0.1535
     18 F          14.8411   44.6857    6.1398 F       1  UNL1       -0.2029
     19 N           6.8584   41.9553    9.5583 N.pl3   1  UNL1       -0.2659
     20 C           5.8735   42.8842    9.0608 C.ar    1  UNL1        0.0531
     21 C           6.2481   43.8972    8.1627 C.ar    1  UNL1        0.0149
     22 C           5.2952   44.7841    7.6536 C.ar    1  UNL1        0.0013
     23 C           3.9558   44.6627    8.0308 C.ar    1  UNL1        0.0001
     24 C           3.5685   43.6523    8.9142 C.ar    1  UNL1        0.0013
     25 C           4.5216   42.7656    9.4228 C.ar    1  UNL1        0.0149
     26 C           6.7073   41.4163   10.9069 C.3     1  UNL1        0.0975
     27 C           7.8851   41.8319   11.7688 C.3     1  UNL1        0.0236
@<TRIPOS>BOND
     1     1    19    1
     2     1     5   ar
     3    26    19    1
     4    26    27    1
     5    21    22   ar
     6    23    24   ar
     7    25    20   ar
     8     2     7    1
     9     2     5   ar
    10     6     8   am
    11    13    14   ar
    12    15    16   ar
    13    17    18    1
    14    17    12   ar
    15    19    20    1
    16     3     4   ar
    17     7     6   am
    18     8    12    1
    19     1     3   ar
    20    20    21   ar
    21    22    23   ar
    22    24    25   ar
    23     2     4   ar
    24     6     9    2
    25    12    13   ar
    26    14    15   ar
    27    16    17   ar
    28     7    10    1
    29     8    11    1
@<TRIPOS>MOLECULE
MolPort-007-714-559 CHEMBL1734373 ChemDiv-E002-1899 MCULE-5246444866 PubChem-16016863 ZINC000006780261
 27 29 0 0 0
SMALL
GASTEIGER

@<TRIPOS>ATOM
      1 C          12.6422   41.2810    9.0491 C.ar    1  UNL1        0.1905
      2 C          10.4596   41.2815   10.0411 C.ar    1  UNL1        0.1904
      3 N          11.9845   42.4545    8.8979 N.ar    1  UNL1       -0.1239
      4 N          10.7745   42.4573    9.4544 N.ar    1  UNL1       -0.1240
      5 S          11.6976   40.1547    9.8859 S.2     1  UNL1       -0.0151
      6 C           7.9497   41.5494   10.3104 C.2     1  UNL1        0.3097
      7 N           9.2187   41.0166   10.7021 N.am    1  UNL1       -0.2468
      8 N           6.7881   41.2026   11.0707 N.am    1  UNL1       -0.2662
      9 O           7.8621   42.3513    9.3412 O.2     1  UNL1       -0.2521
     10 H           9.2394   40.4220   11.4865 H       1  UNL1        0.1584
     11 H           6.9350   40.7718   11.9436 H       1  UNL1        0.1565
     12 C           5.4293   41.4274   10.6731 C.ar    1  UNL1        0.0793
     13 C           4.5368   41.9467   11.6177 C.ar    1  UNL1        0.0170
     14 C           3.1974   42.1651   11.2842 C.ar    1  UNL1        0.0014
     15 C           2.7366   41.8502   10.0042 C.ar    1  UNL1        0.0024
     16 C           3.6121   41.3056    9.0620 C.ar    1  UNL1        0.0309
     17 C           4.9538   41.0863    9.3899 C.ar    1  UNL1        0.1535
     18 F           5.7580   40.4887    8.4767 F       1  UNL1       -0.2029
     19 N          13.9401   41.0282    8.4772 N.pl3   1  UNL1       -0.2659
     20 C          14.8960   40.1336    9.0823 C.ar    1  UNL1        0.0531
     21 C          14.6816   38.7457    9.0526 C.ar    1  UNL1        0.0149
     22 C          15.6165   37.8697    9.6115 C.ar    1  UNL1        0.0013
     23 C          16.7801   38.3717   10.1991 C.ar    1  UNL1        0.0001
     24 C          17.0106   39.7491   10.2247 C.ar    1  UNL1        0.0013
     25 C          16.0756   40.6246    9.6656 C.ar    1  UNL1        0.0149
     26 C          14.3068   41.7359    7.2538 C.3     1  UNL1        0.0975
     27 C          15.4305   42.7158    7.5360 C.3     1  UNL1        0.0236
@<TRIPOS>BOND
     1     1    19    1
     2     1     5   ar
     3    26    19    1
     4    26    27    1
     5    21    22   ar
     6    23    24   ar
     7    25    20   ar
     8     2     7    1
     9     2     5   ar
    10     6     8   am
    11    13    14   ar
    12    15    16   ar
    13    17    18    1
    14    17    12   ar
    15    19    20    1
    16     3     4   ar
    17     7     6   am
    18     8    12    1
    19     1     3   ar
    20    20    21   ar
    21    22    23   ar
    22    24    25   ar
    23     2     4   ar
    24     6     9    2
    25    12    13   ar
    26    14    15   ar
    27    16    17   ar
    28     7    10    1
    29     8    11    1
@<TRIPOS>MOLECULE
MolPort-007-714-559 CHEMBL1734373 ChemDiv-E002-1899 MCULE-5246444866 PubChem-16016863 ZINC000006780261
 27 29 0 0 0
SMALL
GASTEIGER

@<TRIPOS>ATOM
      1 C          12.9586   41.0987    7.8276 C.ar    1  UNL1        0.1905
      2 C          10.7025   41.6095    7.1973 C.ar    1  UNL1        0.1904
      3 N          12.4129   40.1805    6.9959 N.ar    1  UNL1       -0.1239
      4 N          11.1619   40.4673    6.6404 N.ar    1  UNL1       -0.1240
      5 S          11.8555   42.3299    8.1864 S.2     1  UNL1       -0.0151
      6 C           8.2367   41.8076    7.7668 C.2     1  UNL1        0.3097
      7 N           9.3899   42.1386    6.9870 N.am    1  UNL1       -0.2468
      8 N           6.9814   42.4108    7.4379 N.am    1  UNL1       -0.2662
      9 O           8.3132   40.9605    8.6977 O.2     1  UNL1       -0.2521
     10 H           9.2711   42.7795    6.2492 H       1  UNL1        0.1584
     11 H           6.9199   42.8759    6.5723 H       1  UNL1        0.1565
     12 C           5.8057   42.3975    8.2578 C.ar    1  UNL1        0.0793
     13 C           5.3271   41.1643    8.7148 C.ar    1  UNL1        0.0170
     14 C           4.1735   41.0974    9.5007 C.ar    1  UNL1        0.0014
     15 C           3.4798   42.2656    9.8230 C.ar    1  UNL1        0.0024
     16 C           3.9327   43.4991    9.3493 C.ar    1  UNL1        0.0309
     17 C           5.0874   43.5720    8.5636 C.ar    1  UNL1        0.1535
     18 F           5.4572   44.7750    8.0599 F       1  UNL1       -0.2029
     19 N          14.2783   40.9642    8.3894 N.pl3   1  UNL1       -0.2659
     20 C          15.3647   41.8478    8.0441 C.ar    1  UNL1        0.0531
     21 C          15.1843   42.8406    7.0669 C.ar    1  UNL1        0.0149
     22 C          16.2227   43.7195    6.7461 C.ar    1  UNL1        0.0013
     23 C          17.4505   43.6204    7.4048 C.ar    1  UNL1        0.0001
     24 C          17.6388   42.6449    8.3867 C.ar    1  UNL1        0.0013
     25 C          16.6001   41.7665    8.7072 C.ar    1  UNL1        0.0149
     26 C          14.5256   39.8660    9.3194 C.3     1  UNL1        0.0975
     27 C          13.6030   39.9813   10.5186 C.3     1  UNL1        0.0236
@<TRIPOS>BOND
     1     1    19    1
     2     1     5   ar
     3    26    19    1
     4    26    27    1
     5    21    22   ar
     6    23    24   ar
     7    25    20   ar
     8     2     7    1
     9     2     5   ar
    10     6     8   am
    11    13    14   ar
    12    15    16   ar
    13    17    18    1
    14    17    12   ar
    15    19    20    1
    16     3     4   ar
    17     7     6   am
    18     8    12    1
    19     1     3   ar
    20    20    21   ar
    21    22    23   ar
    22    24    25   ar
    23     2     4   ar
    24     6     9    2
    25    12    13   ar
    26    14    15   ar
    27    16    17   ar
    28     7    10    1
    29     8    11    1
@<TRIPOS>MOLECULE
MolPort-007-714-559 CHEMBL1734373 ChemDiv-E002-1899 MCULE-5246444866 PubChem-16016863 ZINC000006780261
 27 29 0 0 0
SMALL
GASTEIGER

@<TRIPOS>ATOM
      1 C           6.9593   41.7999   10.3481 C.ar    1  UNL1        0.1905
      2 C           9.2379   41.2829   10.8852 C.ar    1  UNL1        0.1904
      3 N           7.6919   41.4245    9.2734 N.ar    1  UNL1       -0.1239
      4 N           8.9561   41.1310    9.5724 N.ar    1  UNL1       -0.1240
      5 S           7.8985   41.8080   11.7549 S.2     1  UNL1       -0.0151
      6 C          11.5141   40.1600   10.9333 C.2     1  UNL1        0.3097
      7 N          10.5225   41.0426   11.4676 N.am    1  UNL1       -0.2468
      8 N          12.7566   40.0122   11.6276 N.am    1  UNL1       -0.2662
      9 O          11.2793   39.4850    9.8945 O.2     1  UNL1       -0.2521
     10 H          10.7410   41.5211   12.2997 H       1  UNL1        0.1584
     11 H          12.8045   40.3705   12.5434 H       1  UNL1        0.1565
     12 C          13.9376   39.3884   11.1070 C.ar    1  UNL1        0.0793
     13 C          14.4466   38.2676   11.7727 C.ar    1  UNL1        0.0170
     14 C          15.6064   37.6362   11.3154 C.ar    1  UNL1        0.0014
     15 C          16.2758   38.1323   10.1950 C.ar    1  UNL1        0.0024
     16 C          15.7923   39.2669    9.5393 C.ar    1  UNL1        0.0309
     17 C          14.6313   39.9019    9.9916 C.ar    1  UNL1        0.1535
     18 F          14.2313   41.0423    9.3774 F       1  UNL1       -0.2029
     19 N           5.5850   42.2215   10.2539 N.pl3   1  UNL1       -0.2659
     20 C           5.1331   43.1908    9.2862 C.ar    1  UNL1        0.0531
     21 C           3.7676   43.5046    9.1854 C.ar    1  UNL1        0.0149
     22 C           3.3240   44.4632    8.2700 C.ar    1  UNL1        0.0013
     23 C           4.2421   45.1245    7.4509 C.ar    1  UNL1        0.0001
     24 C           5.6039   44.8299    7.5495 C.ar    1  UNL1        0.0013
     25 C           6.0470   43.8714    8.4650 C.ar    1  UNL1        0.0149
     26 C           4.6241   41.6648   11.2019 C.3     1  UNL1        0.0975
     27 C           4.0950   40.3384   10.6889 C.3     1  UNL1        0.0236
@<TRIPOS>BOND
     1     1    19    1
     2     1     5   ar
     3    26    19    1
     4    26    27    1
     5    21    22   ar
     6    23    24   ar
     7    25    20   ar
     8     2     7    1
     9     2     5   ar
    10     6     8   am
    11    13    14   ar
    12    15    16   ar
    13    17    18    1
    14    17    12   ar
    15    19    20    1
    16     3     4   ar
    17     7     6   am
    18     8    12    1
    19     1     3   ar
    20    20    21   ar
    21    22    23   ar
    22    24    25   ar
    23     2     4   ar
    24     6     9    2
    25    12    13   ar
    26    14    15   ar
    27    16    17   ar
    28     7    10    1
    29     8    11    1
@<TRIPOS>MOLECULE
MolPort-007-714-559 CHEMBL1734373 ChemDiv-E002-1899 MCULE-5246444866 PubChem-16016863 ZINC000006780261
 27 29 0 0 0
SMALL
GASTEIGER

@<TRIPOS>ATOM
      1 C          11.3880   40.4841   10.1472 C.ar    1  UNL1        0.1905
      2 C          12.7428   38.8968    8.9671 C.ar    1  UNL1        0.1904
      3 N          12.7148   40.7342   10.2443 N.ar    1  UNL1       -0.1239
      4 N          13.4675   39.8563    9.5835 N.ar    1  UNL1       -0.1240
      5 S          11.0938   39.0959    9.2264 S.2     1  UNL1       -0.0151
      6 C          14.3736   36.9806    8.6310 C.2     1  UNL1        0.3097
      7 N          13.3058   37.8293    8.1985 N.am    1  UNL1       -0.2468
      8 N          14.8417   35.9533    7.7518 N.am    1  UNL1       -0.2662
      9 O          14.9275   37.1654    9.7486 O.2     1  UNL1       -0.2521
     10 H          12.9296   37.6662    7.3034 H       1  UNL1        0.1584
     11 H          14.5456   35.9958    6.8138 H       1  UNL1        0.1565
     12 C          15.7038   34.8676    8.1166 C.ar    1  UNL1        0.0793
     13 C          15.1373   33.6015    8.3021 C.ar    1  UNL1        0.0170
     14 C          15.9330   32.5156    8.6771 C.ar    1  UNL1        0.0014
     15 C          17.3024   32.6925    8.8848 C.ar    1  UNL1        0.0024
     16 C          17.8738   33.9576    8.7295 C.ar    1  UNL1        0.0309
     17 C          17.0826   35.0475    8.3529 C.ar    1  UNL1        0.1535
     18 F          17.6550   36.2743    8.2829 F       1  UNL1       -0.2029
     19 N          10.3889   41.2657   10.8301 N.pl3   1  UNL1       -0.2659
     20 C           9.5578   42.2299   10.1520 C.ar    1  UNL1        0.0531
     21 C           8.5686   41.8007    9.2518 C.ar    1  UNL1        0.0149
     22 C           7.7399   42.7264    8.6116 C.ar    1  UNL1        0.0013
     23 C           7.8859   44.0912    8.8707 C.ar    1  UNL1        0.0001
     24 C           8.8581   44.5301    9.7726 C.ar    1  UNL1        0.0013
     25 C           9.6864   43.6040   10.4126 C.ar    1  UNL1        0.0149
     26 C          10.2416   41.0923   12.2724 C.3     1  UNL1        0.0975
     27 C           8.7727   41.1150   12.6523 C.3     1  UNL1        0.0236
@<TRIPOS>BOND
     1     1    19    1
     2     1     5   ar
     3    26    19    1
     4    26    27    1
     5    21    22   ar
     6    23    24   ar
     7    25    20   ar
     8     2     7    1
     9     2     5   ar
    10     6     8   am
    11    13    14   ar
    12    15    16   ar
    13    17    18    1
    14    17    12   ar
    15    19    20    1
    16     3     4   ar
    17     7     6   am
    18     8    12    1
    19     1     3   ar
    20    20    21   ar
    21    22    23   ar
    22    24    25   ar
    23     2     4   ar
    24     6     9    2
    25    12    13   ar
    26    14    15   ar
    27    16    17   ar
    28     7    10    1
    29     8    11    1
@<TRIPOS>MOLECULE
MolPort-007-714-559 CHEMBL1734373 ChemDiv-E002-1899 MCULE-5246444866 PubChem-16016863 ZINC000006780261
 27 29 0 0 0
SMALL
GASTEIGER

@<TRIPOS>ATOM
      1 C          12.4916   40.6085    8.8380 C.ar    1  UNL1        0.1905
      2 C          10.3438   41.6187    9.1763 C.ar    1  UNL1        0.1904
      3 N          11.6423   40.4237    7.8001 N.ar    1  UNL1       -0.1239
      4 N          10.4513   40.9902    7.9850 N.ar    1  UNL1       -0.1240
      5 S          11.7558   41.4907   10.0797 S.2     1  UNL1       -0.0151
      6 C           7.8265   41.8541    9.4040 C.2     1  UNL1        0.3097
      7 N           9.1683   42.2988    9.6265 N.am    1  UNL1       -0.2468
      8 N           6.7431   42.6413    9.9083 N.am    1  UNL1       -0.2662
      9 O           7.5992   40.8118    8.7318 O.2     1  UNL1       -0.2521
     10 H           9.2921   43.1371   10.1277 H       1  UNL1        0.1584
     11 H           6.9551   43.5521   10.2160 H       1  UNL1        0.1565
     12 C           5.3763   42.2202   10.0050 C.ar    1  UNL1        0.0793
     13 C           4.4154   42.9003    9.2484 C.ar    1  UNL1        0.0170
     14 C           3.0672   42.5400    9.3232 C.ar    1  UNL1        0.0014
     15 C           2.6676   41.5038   10.1696 C.ar    1  UNL1        0.0024
     16 C           3.6143   40.8364   10.9502 C.ar    1  UNL1        0.0309
     17 C           4.9649   41.1918   10.8782 C.ar    1  UNL1        0.1535
     18 F           5.8457   40.5739   11.7028 F       1  UNL1       -0.2029
     19 N          13.8119   40.0342    8.8849 N.pl3   1  UNL1       -0.2659
     20 C          15.0084   40.8184    8.7007 C.ar    1  UNL1        0.0531
     21 C          14.9930   41.9437    7.8601 C.ar    1  UNL1        0.0149
     22 C          16.1401   42.7257    7.6978 C.ar    1  UNL1        0.0013
     23 C          17.3130   42.3956    8.3807 C.ar    1  UNL1        0.0001
     24 C          17.3380   41.2858    9.2285 C.ar    1  UNL1        0.0013
     25 C          16.1908   40.5043    9.3906 C.ar    1  UNL1        0.0149
     26 C          13.9330   38.5943    9.0945 C.3     1  UNL1        0.0975
     27 C          13.5461   38.2410   10.5186 C.3     1  UNL1        0.0236
@<TRIPOS>BOND
     1     1    19    1
     2     1     5   ar
     3    26    19    1
     4    26    27    1
     5    21    22   ar
     6    23    24   ar
     7    25    20   ar
     8     2     7    1
     9     2     5   ar
    10     6     8   am
    11    13    14   ar
    12    15    16   ar
    13    17    18    1
    14    17    12   ar
    15    19    20    1
    16     3     4   ar
    17     7     6   am
    18     8    12    1
    19     1     3   ar
    20    20    21   ar
    21    22    23   ar
    22    24    25   ar
    23     2     4   ar
    24     6     9    2
    25    12    13   ar
    26    14    15   ar
    27    16    17   ar
    28     7    10    1
    29     8    11    1
@<TRIPOS>MOLECULE
MolPort-007-714-559 CHEMBL1734373 ChemDiv-E002-1899 MCULE-5246444866 PubChem-16016863 ZINC000006780261
 27 29 0 0 0
SMALL
GASTEIGER

@<TRIPOS>ATOM
      1 C          12.9399   40.8228    8.2460 C.ar    1  UNL1        0.1905
      2 C          10.6341   40.3545    8.7059 C.ar    1  UNL1        0.1904
      3 N          12.4502   39.7839    7.5293 N.ar    1  UNL1       -0.1239
      4 N          11.1675   39.5276    7.7798 N.ar    1  UNL1       -0.1240
      5 S          11.7608   41.4650    9.2748 S.2     1  UNL1       -0.0151
      6 C           8.3181   41.3400    9.0363 C.2     1  UNL1        0.3097
      7 N           9.2797   40.2878    9.1624 N.am    1  UNL1       -0.2468
      8 N           6.9966   41.1356    9.5457 N.am    1  UNL1       -0.2662
      9 O           8.6424   42.4481    8.5294 O.2     1  UNL1       -0.2521
     10 H           8.9869   39.4542    9.5965 H       1  UNL1        0.1584
     11 H           6.8574   40.3586   10.1340 H       1  UNL1        0.1565
     12 C           5.8576   41.9628    9.2748 C.ar    1  UNL1        0.0793
     13 C           6.0732   43.2364    8.7364 C.ar    1  UNL1        0.0170
     14 C           4.9967   44.0876    8.4730 C.ar    1  UNL1        0.0014
     15 C           3.6942   43.6754    8.7617 C.ar    1  UNL1        0.0024
     16 C           3.4694   42.4172    9.3251 C.ar    1  UNL1        0.0309
     17 C           4.5429   41.5608    9.5894 C.ar    1  UNL1        0.1535
     18 F           4.2962   40.3778   10.2036 F       1  UNL1       -0.2029
     19 N          14.3173   41.2402    8.1840 N.pl3   1  UNL1       -0.2659
     20 C          14.7724   42.2940    7.3106 C.ar    1  UNL1        0.0531
     21 C          13.9066   42.8349    6.3458 C.ar    1  UNL1        0.0149
     22 C          14.3300   43.8755    5.5141 C.ar    1  UNL1        0.0013
     23 C          15.6213   44.3921    5.6436 C.ar    1  UNL1        0.0001
     24 C          16.4880   43.8707    6.6070 C.ar    1  UNL1        0.0013
     25 C          16.0642   42.8303    7.4384 C.ar    1  UNL1        0.0149
     26 C          15.2905   40.5405    9.0178 C.3     1  UNL1        0.0975
     27 C          14.5934   39.8928   10.1998 C.3     1  UNL1        0.0236
@<TRIPOS>BOND
     1     1    19    1
     2     1     5   ar
     3    26    19    1
     4    26    27    1
     5    21    22   ar
     6    23    24   ar
     7    25    20   ar
     8     2     7    1
     9     2     5   ar
    10     6     8   am
    11    13    14   ar
    12    15    16   ar
    13    17    18    1
    14    17    12   ar
    15    19    20    1
    16     3     4   ar
    17     7     6   am
    18     8    12    1
    19     1     3   ar
    20    20    21   ar
    21    22    23   ar
    22    24    25   ar
    23     2     4   ar
    24     6     9    2
    25    12    13   ar
    26    14    15   ar
    27    16    17   ar
    28     7    10    1
    29     8    11    1
@<TRIPOS>MOLECULE
MolPort-007-714-559 CHEMBL1734373 ChemDiv-E002-1899 MCULE-5246444866 PubChem-16016863 ZINC000006780261
 27 29 0 0 0
SMALL
GASTEIGER

@<TRIPOS>ATOM
      1 C           8.1439   42.9002    9.2311 C.ar    1  UNL1        0.1905
      2 C          10.0112   42.0838   10.4938 C.ar    1  UNL1        0.1904
      3 N           8.8805   43.8850    9.7969 N.ar    1  UNL1       -0.1239
      4 N           9.9216   43.4321   10.4932 N.ar    1  UNL1       -0.1240
      5 S           8.7668   41.3747    9.6134 S.2     1  UNL1       -0.0151
      6 C          11.9043   40.3937   10.5548 C.2     1  UNL1        0.3097
      7 N          11.0300   41.3433   11.1726 N.am    1  UNL1       -0.2468
      8 N          12.8762   39.7203   11.3607 N.am    1  UNL1       -0.2662
      9 O          11.7885   40.1171    9.3301 O.2     1  UNL1       -0.2521
     10 H          11.1378   41.4990   12.1387 H       1  UNL1        0.1584
     11 H          12.7762   39.7909   12.3376 H       1  UNL1        0.1565
     12 C          13.9827   38.9518   10.8707 C.ar    1  UNL1        0.0793
     13 C          15.1338   39.6317   10.4570 C.ar    1  UNL1        0.0170
     14 C          16.2315   38.9286    9.9536 C.ar    1  UNL1        0.0014
     15 C          16.1795   37.5374    9.8457 C.ar    1  UNL1        0.0024
     16 C          15.0253   36.8507   10.2297 C.ar    1  UNL1        0.0309
     17 C          13.9244   37.5491   10.7355 C.ar    1  UNL1        0.1535
     18 F          12.7948   36.8596   11.0294 F       1  UNL1       -0.2029
     19 N           6.9379   43.1513    8.4841 N.pl3   1  UNL1       -0.2659
     20 C           5.6461   42.6690    8.9070 C.ar    1  UNL1        0.0531
     21 C           4.5394   43.5340    8.9216 C.ar    1  UNL1        0.0149
     22 C           3.2779   43.0682    9.3031 C.ar    1  UNL1        0.0013
     23 C           3.1077   41.7302    9.6664 C.ar    1  UNL1        0.0001
     24 C           4.1979   40.8572    9.6449 C.ar    1  UNL1        0.0013
     25 C           5.4590   41.3234    9.2633 C.ar    1  UNL1        0.0149
     26 C           7.0418   43.8961    7.2325 C.3     1  UNL1        0.0975
     27 C           6.8648   42.9587    6.0524 C.3     1  UNL1        0.0236
@<TRIPOS>BOND
     1     1    19    1
     2     1     5   ar
     3    26    19    1
     4    26    27    1
     5    21    22   ar
     6    23    24   ar
     7    25    20   ar
     8     2     7    1
     9     2     5   ar
    10     6     8   am
    11    13    14   ar
    12    15    16   ar
    13    17    18    1
    14    17    12   ar
    15    19    20    1
    16     3     4   ar
    17     7     6   am
    18     8    12    1
    19     1     3   ar
    20    20    21   ar
    21    22    23   ar
    22    24    25   ar
    23     2     4   ar
    24     6     9    2
    25    12    13   ar
    26    14    15   ar
    27    16    17   ar
    28     7    10    1
    29     8    11    1
