@<TRIPOS>MOLECULE
MolPort-002-278-585 1077129 CHEMBL1366508 CSSS00160326221 ChemDiv-D039-0089 MCULE-8992737878 PubChem-1264627 ZINC000001077129 ZINC01077129
 33 35 0 0 0
SMALL
GASTEIGER

@<TRIPOS>ATOM
      1 C           9.9885   41.4939    8.1048 C.2     1  UNL1        0.3093
      2 O          10.2300   42.3380    9.0089 O.2     1  UNL1       -0.2521
      3 N           8.6453   41.0802    7.8366 N.am    1  UNL1       -0.2551
      4 N          11.0462   40.9741    7.2942 N.am    1  UNL1       -0.2632
      5 H           8.5048   40.4432    7.0993 H       1  UNL1        0.1578
      6 H          10.7870   40.5017    6.4703 H       1  UNL1        0.1566
      7 C           5.5783   42.5217    9.0386 C.ar    1  UNL1        0.0857
      8 C           6.0572   41.8027   10.1275 C.ar    1  UNL1        0.0408
      9 C           5.4044   41.6908   11.4622 C.3     1  UNL1        0.0500
     10 C           7.4891   41.5214    8.5581 C.ar    1  UNL1        0.1085
     11 C           6.5081   42.3339    8.0322 C.ar    1  UNL1        0.0153
     12 C           6.4771   42.8894    6.6484 C.3     1  UNL1        0.0342
     13 N           7.2233   41.1903    9.8378 N.ar    1  UNL1       -0.3451
     14 H           7.7646   40.6230   10.4331 H       1  UNL1        0.1668
     15 C           4.3381   43.3209    8.9647 C.2     1  UNL1        0.3421
     16 O           4.3997   44.5796    8.9095 O.2     1  UNL1       -0.2449
     17 O           3.0975   42.6797    8.9554 O.3     1  UNL1       -0.4454
     18 C           2.2742   41.8259   11.0380 C.3     1  UNL1        0.0513
     19 C           2.8628   41.4847    9.6852 C.3     1  UNL1        0.2089
     20 C          12.4493   41.0777    7.5712 C.ar    1  UNL1        0.1234
     21 C          13.1625   40.2776    8.4392 C.ar    1  UNL1        0.0728
     22 C          12.6311   39.0986    9.1834 C.3     1  UNL1        0.0531
     23 C          15.5070   40.0924    9.2576 C.3     1  UNL1        0.1518
     24 C          13.3545   42.0358    7.1499 C.ar    1  UNL1        0.2935
     25 O          13.0986   43.0223    6.4089 O.2     1  UNL1       -0.2638
     26 N          14.4347   40.7278    8.5014 N.ar    1  UNL1       -0.2646
     27 N          14.5601   41.7982    7.7175 N.ar    1  UNL1       -0.2134
     28 C          15.7618   42.5774    7.5273 C.ar    1  UNL1        0.0841
     29 C          15.8880   43.4288    6.4174 C.ar    1  UNL1        0.0192
     30 C          17.0429   44.1947    6.2349 C.ar    1  UNL1        0.0015
     31 C          18.0840   44.1202    7.1630 C.ar    1  UNL1        0.0001
     32 C          17.9691   43.2812    8.2738 C.ar    1  UNL1        0.0015
     33 C          16.8136   42.5159    8.4550 C.ar    1  UNL1        0.0192
@<TRIPOS>BOND
     1    18    19    1
     2    19    17    1
     3    15    17    1
     4    15     7    1
     5     8    13   ar
     6     9     8    1
     7    10     3    1
     8     1     4   am
     9    21    26   ar
    10    22    21    1
    11    23    26    1
    12    24    20   ar
    13    29    30   ar
    14    31    32   ar
    15    33    28   ar
    16    11     7   ar
    17    12    11    1
    18    13    10   ar
    19     3     1   am
    20     4    20    1
    21    26    27   ar
    22    27    24   ar
    23    27    28    1
    24    15    16    2
    25     7     8   ar
    26    10    11   ar
    27     1     2    2
    28    20    21   ar
    29    24    25    2
    30    28    29   ar
    31    30    31   ar
    32    32    33   ar
    33    13    14    1
    34     3     5    1
    35     4     6    1
@<TRIPOS>MOLECULE
MolPort-002-278-585 1077129 CHEMBL1366508 CSSS00160326221 ChemDiv-D039-0089 MCULE-8992737878 PubChem-1264627 ZINC000001077129 ZINC01077129
 33 35 0 0 0
SMALL
GASTEIGER

@<TRIPOS>ATOM
      1 C           9.4691   41.1096   10.4059 C.2     1  UNL1        0.3093
      2 O           9.1964   40.9504    9.1858 O.2     1  UNL1       -0.2521
      3 N           8.4262   41.3251   11.3616 N.am    1  UNL1       -0.2551
      4 N          10.8207   41.0241   10.8660 N.am    1  UNL1       -0.2632
      5 H           8.6871   41.4116   12.3069 H       1  UNL1        0.1578
      6 H          10.9574   40.9300   11.8365 H       1  UNL1        0.1566
      7 C           5.1245   42.1465   10.1982 C.ar    1  UNL1        0.0857
      8 C           4.9301   41.0120   10.9775 C.ar    1  UNL1        0.0408
      9 C           3.6277   40.3354   11.2346 C.3     1  UNL1        0.0500
     10 C           7.0318   41.4247   11.0491 C.ar    1  UNL1        0.1085
     11 C           6.4823   42.4042   10.2506 C.ar    1  UNL1        0.0153
     12 C           7.2251   43.5135    9.5855 C.3     1  UNL1        0.0342
     13 N           6.0922   40.5683   11.4982 N.ar    1  UNL1       -0.3451
     14 H           6.2260   39.7865   12.0815 H       1  UNL1        0.1668
     15 C           4.1009   42.9196    9.4656 C.2     1  UNL1        0.3421
     16 O           3.0149   42.3722    9.1310 O.2     1  UNL1       -0.2449
     17 O           4.3381   44.2580    9.1450 O.3     1  UNL1       -0.4454
     18 C           5.4548   44.2768    7.0244 C.3     1  UNL1        0.0513
     19 C           4.2476   44.7399    7.8126 C.3     1  UNL1        0.2089
     20 C          11.9949   41.0628   10.0440 C.ar    1  UNL1        0.1234
     21 C          13.1057   40.2572   10.1837 C.ar    1  UNL1        0.0728
     22 C          13.2593   39.1352   11.1553 C.3     1  UNL1        0.0531
     23 C          15.3197   39.9767    9.0790 C.3     1  UNL1        0.1518
     24 C          12.3307   41.9559    9.0418 C.ar    1  UNL1        0.2935
     25 O          11.6309   42.9277    8.6499 O.2     1  UNL1       -0.2638
     26 N          14.0384   40.6411    9.2850 N.ar    1  UNL1       -0.2646
     27 N          13.5732   41.6748    8.5843 N.ar    1  UNL1       -0.2134
     28 C          14.2790   42.3818    7.5406 C.ar    1  UNL1        0.0841
     29 C          13.6169   42.7470    6.3570 C.ar    1  UNL1        0.0192
     30 C          14.2910   43.4423    5.3492 C.ar    1  UNL1        0.0015
     31 C          15.6352   43.7834    5.5154 C.ar    1  UNL1        0.0001
     32 C          16.3040   43.4306    6.6897 C.ar    1  UNL1        0.0015
     33 C          15.6286   42.7354    7.6967 C.ar    1  UNL1        0.0192
@<TRIPOS>BOND
     1    18    19    1
     2    19    17    1
     3    15    17    1
     4    15     7    1
     5     8    13   ar
     6     9     8    1
     7    10     3    1
     8     1     4   am
     9    21    26   ar
    10    22    21    1
    11    23    26    1
    12    24    20   ar
    13    29    30   ar
    14    31    32   ar
    15    33    28   ar
    16    11     7   ar
    17    12    11    1
    18    13    10   ar
    19     3     1   am
    20     4    20    1
    21    26    27   ar
    22    27    24   ar
    23    27    28    1
    24    15    16    2
    25     7     8   ar
    26    10    11   ar
    27     1     2    2
    28    20    21   ar
    29    24    25    2
    30    28    29   ar
    31    30    31   ar
    32    32    33   ar
    33    13    14    1
    34     3     5    1
    35     4     6    1
@<TRIPOS>MOLECULE
MolPort-002-278-585 1077129 CHEMBL1366508 CSSS00160326221 ChemDiv-D039-0089 MCULE-8992737878 PubChem-1264627 ZINC000001077129 ZINC01077129
 33 35 0 0 0
SMALL
GASTEIGER

@<TRIPOS>ATOM
      1 C           9.1953   42.3381    7.1200 C.2     1  UNL1        0.3093
      2 O           9.3528   42.6941    8.3187 O.2     1  UNL1       -0.2521
      3 N           7.9113   42.4345    6.4960 N.am    1  UNL1       -0.2551
      4 N          10.3075   41.8819    6.3449 N.am    1  UNL1       -0.2632
      5 H           7.8460   42.1744    5.5487 H       1  UNL1        0.1578
      6 H          10.1823   41.8325    5.3696 H       1  UNL1        0.1566
      7 C           4.9718   42.9527    8.5010 C.ar    1  UNL1        0.0857
      8 C           5.0096   44.0674    7.6715 C.ar    1  UNL1        0.0408
      9 C           4.0288   45.1891    7.6620 C.3     1  UNL1        0.0500
     10 C           6.7135   42.8800    7.1431 C.ar    1  UNL1        0.1085
     11 C           6.0743   42.1937    8.1528 C.ar    1  UNL1        0.0153
     12 C           6.5046   40.8910    8.7377 C.3     1  UNL1        0.0342
     13 N           6.0717   44.0267    6.8415 N.ar    1  UNL1       -0.3451
     14 H           6.3243   44.6919    6.1611 H       1  UNL1        0.1668
     15 C           3.9681   42.6381    9.5383 C.2     1  UNL1        0.3421
     16 O           2.7565   42.4891    9.2207 O.2     1  UNL1       -0.2449
     17 O           4.3640   42.5053   10.8709 O.3     1  UNL1       -0.4454
     18 C           3.9915   40.1956   11.3910 C.3     1  UNL1        0.0513
     19 C           3.6976   41.6318   11.7702 C.3     1  UNL1        0.2089
     20 C          11.5880   41.4901    6.8575 C.ar    1  UNL1        0.1234
     21 C          11.8638   40.3198    7.5334 C.ar    1  UNL1        0.0728
     22 C          10.9066   39.2019    7.7791 C.3     1  UNL1        0.0531
     23 C          13.8340   39.2441    8.6112 C.3     1  UNL1        0.1518
     24 C          12.7682   42.2110    6.9042 C.ar    1  UNL1        0.2935
     25 O          12.9374   43.3845    6.4775 O.2     1  UNL1       -0.2638
     26 N          13.1543   40.3407    7.9323 N.ar    1  UNL1       -0.2646
     27 N          13.7127   41.4893    7.5515 N.ar    1  UNL1       -0.2134
     28 C          15.0749   41.8984    7.8056 C.ar    1  UNL1        0.0841
     29 C          15.8357   41.2577    8.7974 C.ar    1  UNL1        0.0192
     30 C          17.1580   41.6404    9.0389 C.ar    1  UNL1        0.0015
     31 C          17.7360   42.6669    8.2884 C.ar    1  UNL1        0.0001
     32 C          16.9920   43.3087    7.2958 C.ar    1  UNL1        0.0015
     33 C          15.6697   42.9249    7.0552 C.ar    1  UNL1        0.0192
@<TRIPOS>BOND
     1    18    19    1
     2    19    17    1
     3    15    17    1
     4    15     7    1
     5     8    13   ar
     6     9     8    1
     7    10     3    1
     8     1     4   am
     9    21    26   ar
    10    22    21    1
    11    23    26    1
    12    24    20   ar
    13    29    30   ar
    14    31    32   ar
    15    33    28   ar
    16    11     7   ar
    17    12    11    1
    18    13    10   ar
    19     3     1   am
    20     4    20    1
    21    26    27   ar
    22    27    24   ar
    23    27    28    1
    24    15    16    2
    25     7     8   ar
    26    10    11   ar
    27     1     2    2
    28    20    21   ar
    29    24    25    2
    30    28    29   ar
    31    30    31   ar
    32    32    33   ar
    33    13    14    1
    34     3     5    1
    35     4     6    1
@<TRIPOS>MOLECULE
MolPort-002-278-585 1077129 CHEMBL1366508 CSSS00160326221 ChemDiv-D039-0089 MCULE-8992737878 PubChem-1264627 ZINC000001077129 ZINC01077129
 33 35 0 0 0
SMALL
GASTEIGER

@<TRIPOS>ATOM
      1 C          10.1212   41.1462    8.9701 C.2     1  UNL1        0.3093
      2 O          10.3829   42.0685    8.1522 O.2     1  UNL1       -0.2521
      3 N           8.7845   40.9508    9.4418 N.am    1  UNL1       -0.2551
      4 N          11.1444   40.2440    9.4004 N.am    1  UNL1       -0.2632
      5 H           8.6248   40.1970   10.0547 H       1  UNL1        0.1578
      6 H          10.8522   39.4192    9.8516 H       1  UNL1        0.1566
      7 C           5.7053   42.7909    9.1939 C.ar    1  UNL1        0.0857
      8 C           6.3692   43.0919    8.0103 C.ar    1  UNL1        0.0408
      9 C           5.8694   43.9816    6.9246 C.3     1  UNL1        0.0500
     10 C           7.6609   41.7672    9.0914 C.ar    1  UNL1        0.1085
     11 C           6.5462   41.9366    9.8837 C.ar    1  UNL1        0.0153
     12 C           6.3143   41.3113   11.2178 C.3     1  UNL1        0.0342
     13 N           7.5635   42.4692    7.9445 N.ar    1  UNL1       -0.3451
     14 H           8.2231   42.5169    7.2151 H       1  UNL1        0.1668
     15 C           4.3802   43.2770    9.6296 C.2     1  UNL1        0.3421
     16 O           3.7856   44.1706    8.9670 O.2     1  UNL1       -0.2449
     17 O           3.7870   42.7444   10.7762 O.3     1  UNL1       -0.4454
     18 C           2.6895   41.1579    9.3539 C.3     1  UNL1        0.0513
     19 C           2.6969   41.8373   10.7072 C.3     1  UNL1        0.2089
     20 C          12.5565   40.4304    9.2352 C.ar    1  UNL1        0.1234
     21 C          13.5460   39.7452    9.9088 C.ar    1  UNL1        0.0728
     22 C          13.3379   38.6206   10.8672 C.3     1  UNL1        0.0531
     23 C          16.0344   39.7334    9.9985 C.3     1  UNL1        0.1518
     24 C          13.2308   41.3808    8.4889 C.ar    1  UNL1        0.2935
     25 O          12.7023   42.2819    7.7845 O.2     1  UNL1       -0.2638
     26 N          14.7467   40.2508    9.5516 N.ar    1  UNL1       -0.2646
     27 N          14.5633   41.2469    8.6856 N.ar    1  UNL1       -0.2134
     28 C          15.6004   42.0531    8.0841 C.ar    1  UNL1        0.0841
     29 C          15.3249   42.8337    6.9494 C.ar    1  UNL1        0.0192
     30 C          16.3208   43.6256    6.3708 C.ar    1  UNL1        0.0015
     31 C          17.6036   43.6483    6.9229 C.ar    1  UNL1        0.0001
     32 C          17.8893   42.8805    8.0541 C.ar    1  UNL1        0.0015
     33 C          16.8925   42.0891    8.6318 C.ar    1  UNL1        0.0192
@<TRIPOS>BOND
     1    18    19    1
     2    19    17    1
     3    15    17    1
     4    15     7    1
     5     8    13   ar
     6     9     8    1
     7    10     3    1
     8     1     4   am
     9    21    26   ar
    10    22    21    1
    11    23    26    1
    12    24    20   ar
    13    29    30   ar
    14    31    32   ar
    15    33    28   ar
    16    11     7   ar
    17    12    11    1
    18    13    10   ar
    19     3     1   am
    20     4    20    1
    21    26    27   ar
    22    27    24   ar
    23    27    28    1
    24    15    16    2
    25     7     8   ar
    26    10    11   ar
    27     1     2    2
    28    20    21   ar
    29    24    25    2
    30    28    29   ar
    31    30    31   ar
    32    32    33   ar
    33    13    14    1
    34     3     5    1
    35     4     6    1
@<TRIPOS>MOLECULE
MolPort-002-278-585 1077129 CHEMBL1366508 CSSS00160326221 ChemDiv-D039-0089 MCULE-8992737878 PubChem-1264627 ZINC000001077129 ZINC01077129
 33 35 0 0 0
SMALL
GASTEIGER

@<TRIPOS>ATOM
      1 C           8.7354   41.0766    9.7889 C.2     1  UNL1        0.3093
      2 O           8.6385   41.1764    8.5363 O.2     1  UNL1       -0.2521
      3 N           7.6246   41.3978   10.6317 N.am    1  UNL1       -0.2551
      4 N           9.9392   40.5893   10.3885 N.am    1  UNL1       -0.2632
      5 H           7.7393   41.2730   11.6015 H       1  UNL1        0.1578
      6 H           9.8900   40.3188   11.3338 H       1  UNL1        0.1566
      7 C           4.1778   42.1115    9.8974 C.ar    1  UNL1        0.0857
      8 C           4.8786   43.0526    9.1522 C.ar    1  UNL1        0.0408
      9 C           4.2829   44.0950    8.2699 C.3     1  UNL1        0.0500
     10 C           6.3587   41.8869   10.1734 C.ar    1  UNL1        0.1085
     11 C           5.1407   41.3651   10.5521 C.ar    1  UNL1        0.0153
     12 C           4.9278   40.2207   11.4845 C.3     1  UNL1        0.0342
     13 N           6.2102   42.9189    9.3186 N.ar    1  UNL1       -0.3451
     14 H           6.9215   43.4591    8.9045 H       1  UNL1        0.1668
     15 C           2.7130   41.9386    9.9777 C.2     1  UNL1        0.3421
     16 O           2.1108   41.2406    9.1167 O.2     1  UNL1       -0.2449
     17 O           1.9965   42.5491   11.0093 O.3     1  UNL1       -0.4454
     18 C           0.9232   42.6425   13.1502 C.3     1  UNL1        0.0513
     19 C           2.0996   42.1138   12.3568 C.3     1  UNL1        0.2089
     20 C          11.2111   40.4586    9.7394 C.ar    1  UNL1        0.1234
     21 C          11.9009   39.2803    9.5440 C.ar    1  UNL1        0.0728
     22 C          11.4156   37.9119    9.8880 C.3     1  UNL1        0.0531
     23 C          14.0693   38.5669    8.5491 C.3     1  UNL1        0.1518
     24 C          12.0665   41.4475    9.2864 C.ar    1  UNL1        0.2935
     25 O          11.8670   42.6896    9.3570 O.2     1  UNL1       -0.2638
     26 N          13.0935   39.5626    8.9756 N.ar    1  UNL1       -0.2646
     27 N          13.2015   40.8810    8.8141 N.ar    1  UNL1       -0.2134
     28 C          14.3365   41.5797    8.2565 C.ar    1  UNL1        0.0841
     29 C          15.6189   41.3988    8.8001 C.ar    1  UNL1        0.0192
     30 C          16.7228   42.0620    8.2568 C.ar    1  UNL1        0.0015
     31 C          16.5569   42.9119    7.1608 C.ar    1  UNL1        0.0001
     32 C          15.2877   43.0966    6.6077 C.ar    1  UNL1        0.0015
     33 C          14.1847   42.4326    7.1519 C.ar    1  UNL1        0.0192
@<TRIPOS>BOND
     1    18    19    1
     2    19    17    1
     3    15    17    1
     4    15     7    1
     5     8    13   ar
     6     9     8    1
     7    10     3    1
     8     1     4   am
     9    21    26   ar
    10    22    21    1
    11    23    26    1
    12    24    20   ar
    13    29    30   ar
    14    31    32   ar
    15    33    28   ar
    16    11     7   ar
    17    12    11    1
    18    13    10   ar
    19     3     1   am
    20     4    20    1
    21    26    27   ar
    22    27    24   ar
    23    27    28    1
    24    15    16    2
    25     7     8   ar
    26    10    11   ar
    27     1     2    2
    28    20    21   ar
    29    24    25    2
    30    28    29   ar
    31    30    31   ar
    32    32    33   ar
    33    13    14    1
    34     3     5    1
    35     4     6    1
@<TRIPOS>MOLECULE
MolPort-002-278-585 1077129 CHEMBL1366508 CSSS00160326221 ChemDiv-D039-0089 MCULE-8992737878 PubChem-1264627 ZINC000001077129 ZINC01077129
 33 35 0 0 0
SMALL
GASTEIGER

@<TRIPOS>ATOM
      1 C          10.4958   40.8565    8.9880 C.2     1  UNL1        0.3093
      2 O          10.6927   41.4301    7.8833 O.2     1  UNL1       -0.2521
      3 N           9.1757   40.7594    9.5315 N.am    1  UNL1       -0.2551
      4 N          11.5797   40.2448    9.6931 N.am    1  UNL1       -0.2632
      5 H           9.0689   40.2739   10.3812 H       1  UNL1        0.1578
      6 H          11.3460   39.6254   10.4217 H       1  UNL1        0.1566
      7 C           5.9658   42.1509    8.7011 C.ar    1  UNL1        0.0857
      8 C           6.6248   42.0819    7.4791 C.ar    1  UNL1        0.0408
      9 C           6.0758   42.5041    6.1599 C.3     1  UNL1        0.0500
     10 C           7.9976   41.3142    8.9347 C.ar    1  UNL1        0.1085
     11 C           6.8590   41.6540    9.6328 C.ar    1  UNL1        0.0153
     12 C           6.6535   41.5054   11.1025 C.3     1  UNL1        0.0342
     13 N           7.8655   41.5720    7.6179 N.ar    1  UNL1       -0.3451
     14 H           8.5321   41.4205    6.9094 H       1  UNL1        0.1668
     15 C           4.5989   42.6486    8.9580 C.2     1  UNL1        0.3421
     16 O           3.6369   41.8374    9.0455 O.2     1  UNL1       -0.2449
     17 O           4.3744   44.0192    9.1047 O.3     1  UNL1       -0.4454
     18 C           3.0458   45.2060    7.5014 C.3     1  UNL1        0.0513
     19 C           4.4438   44.9147    8.0052 C.3     1  UNL1        0.2089
     20 C          12.9753   40.4509    9.4363 C.ar    1  UNL1        0.1234
     21 C          14.0146   39.7516   10.0134 C.ar    1  UNL1        0.0728
     22 C          13.8827   38.5914   10.9423 C.3     1  UNL1        0.0531
     23 C          16.5033   39.7612    9.9282 C.3     1  UNL1        0.1518
     24 C          13.5886   41.4341    8.6799 C.ar    1  UNL1        0.2935
     25 O          13.0052   42.3548    8.0477 O.2     1  UNL1       -0.2638
     26 N          15.1836   40.2815    9.5918 N.ar    1  UNL1       -0.2646
     27 N          14.9325   41.3063    8.7778 N.ar    1  UNL1       -0.2134
     28 C          15.9188   42.1438    8.1351 C.ar    1  UNL1        0.0841
     29 C          15.6075   42.8231    6.9458 C.ar    1  UNL1        0.0192
     30 C          16.5533   43.6449    6.3264 C.ar    1  UNL1        0.0015
     31 C          17.8212   43.7992    6.8916 C.ar    1  UNL1        0.0001
     32 C          18.1420   43.1332    8.0767 C.ar    1  UNL1        0.0015
     33 C          17.1951   42.3118    8.6951 C.ar    1  UNL1        0.0192
@<TRIPOS>BOND
     1    18    19    1
     2    19    17    1
     3    15    17    1
     4    15     7    1
     5     8    13   ar
     6     9     8    1
     7    10     3    1
     8     1     4   am
     9    21    26   ar
    10    22    21    1
    11    23    26    1
    12    24    20   ar
    13    29    30   ar
    14    31    32   ar
    15    33    28   ar
    16    11     7   ar
    17    12    11    1
    18    13    10   ar
    19     3     1   am
    20     4    20    1
    21    26    27   ar
    22    27    24   ar
    23    27    28    1
    24    15    16    2
    25     7     8   ar
    26    10    11   ar
    27     1     2    2
    28    20    21   ar
    29    24    25    2
    30    28    29   ar
    31    30    31   ar
    32    32    33   ar
    33    13    14    1
    34     3     5    1
    35     4     6    1
@<TRIPOS>MOLECULE
MolPort-002-278-585 1077129 CHEMBL1366508 CSSS00160326221 ChemDiv-D039-0089 MCULE-8992737878 PubChem-1264627 ZINC000001077129 ZINC01077129
 33 35 0 0 0
SMALL
GASTEIGER

@<TRIPOS>ATOM
      1 C          11.1577   40.5928   10.8034 C.2     1  UNL1        0.3093
      2 O          11.2164   40.6285    9.5450 O.2     1  UNL1       -0.2521
      3 N          12.2009   39.9741   11.5624 N.am    1  UNL1       -0.2551
      4 N          10.0746   41.2170   11.4987 N.am    1  UNL1       -0.2632
      5 H          12.1254   40.0002   12.5437 H       1  UNL1        0.1578
      6 H          10.1870   41.3581   12.4665 H       1  UNL1        0.1566
      7 C          14.5942   37.9429    9.8087 C.ar    1  UNL1        0.0857
      8 C          15.3798   38.7972   10.5737 C.ar    1  UNL1        0.0408
      9 C          16.8690   38.8201   10.6151 C.3     1  UNL1        0.0500
     10 C          13.3467   39.3198   11.0049 C.ar    1  UNL1        0.1085
     11 C          13.2855   38.2878   10.0936 C.ar    1  UNL1        0.0153
     12 C          12.0420   37.6791    9.5392 C.3     1  UNL1        0.0342
     13 N          14.6217   39.6395   11.3048 N.ar    1  UNL1       -0.3451
     14 H          14.9327   40.3382   11.9248 H       1  UNL1        0.1668
     15 C          15.0535   36.8862    8.8842 C.2     1  UNL1        0.3421
     16 O          16.1925   36.9668    8.3483 O.2     1  UNL1       -0.2449
     17 O          14.2242   35.7977    8.6057 O.3     1  UNL1       -0.4454
     18 C          15.3289   33.6708    8.6142 C.3     1  UNL1        0.0513
     19 C          14.3307   34.5707    9.3119 C.3     1  UNL1        0.2089
     20 C           8.8404   41.6562   10.9158 C.ar    1  UNL1        0.1234
     21 C           8.6974   42.6801   10.0028 C.ar    1  UNL1        0.0728
     22 C           9.8055   43.4626    9.3813 C.3     1  UNL1        0.0531
     23 C           6.8415   43.7997    8.7770 C.3     1  UNL1        0.1518
     24 C           7.5468   41.2608   11.2078 C.ar    1  UNL1        0.2935
     25 O           7.2102   40.4015   12.0658 O.2     1  UNL1       -0.2638
     26 N           7.3825   42.8572    9.7489 N.ar    1  UNL1       -0.2646
     27 N           6.6748   41.9951   10.4783 N.ar    1  UNL1       -0.2134
     28 C           5.2346   41.8824   10.5021 C.ar    1  UNL1        0.0841
     29 C           4.5471   41.3318    9.4080 C.ar    1  UNL1        0.0192
     30 C           3.1551   41.2082    9.4305 C.ar    1  UNL1        0.0015
     31 C           2.4346   41.6314   10.5498 C.ar    1  UNL1        0.0001
     32 C           3.1065   42.1761   11.6464 C.ar    1  UNL1        0.0015
     33 C           4.4987   42.2989   11.6226 C.ar    1  UNL1        0.0192
@<TRIPOS>BOND
     1    18    19    1
     2    19    17    1
     3    15    17    1
     4    15     7    1
     5     8    13   ar
     6     9     8    1
     7    10     3    1
     8     1     4   am
     9    21    26   ar
    10    22    21    1
    11    23    26    1
    12    24    20   ar
    13    29    30   ar
    14    31    32   ar
    15    33    28   ar
    16    11     7   ar
    17    12    11    1
    18    13    10   ar
    19     3     1   am
    20     4    20    1
    21    26    27   ar
    22    27    24   ar
    23    27    28    1
    24    15    16    2
    25     7     8   ar
    26    10    11   ar
    27     1     2    2
    28    20    21   ar
    29    24    25    2
    30    28    29   ar
    31    30    31   ar
    32    32    33   ar
    33    13    14    1
    34     3     5    1
    35     4     6    1
@<TRIPOS>MOLECULE
MolPort-002-278-585 1077129 CHEMBL1366508 CSSS00160326221 ChemDiv-D039-0089 MCULE-8992737878 PubChem-1264627 ZINC000001077129 ZINC01077129
 33 35 0 0 0
SMALL
GASTEIGER

@<TRIPOS>ATOM
      1 C          11.6382   41.9742    6.7809 C.2     1  UNL1        0.3093
      2 O          11.3184   42.0723    7.9959 O.2     1  UNL1       -0.2521
      3 N          10.6306   41.9038    5.7675 N.am    1  UNL1       -0.2551
      4 N          13.0135   41.9857    6.3878 N.am    1  UNL1       -0.2632
      5 H          10.9306   41.8605    4.8308 H       1  UNL1        0.1578
      6 H          13.2044   42.1333    5.4334 H       1  UNL1        0.1566
      7 C           7.1758   41.1671    6.4390 C.ar    1  UNL1        0.0857
      8 C           7.1987   42.5491    6.2910 C.ar    1  UNL1        0.0408
      9 C           6.0274   43.4636    6.3985 C.3     1  UNL1        0.0500
     10 C           9.2189   41.8915    6.0105 C.ar    1  UNL1        0.1085
     11 C           8.4827   40.7529    6.2565 C.ar    1  UNL1        0.0153
     12 C           9.0123   39.3596    6.3099 C.3     1  UNL1        0.0342
     13 N           8.4444   42.9949    6.0298 N.ar    1  UNL1       -0.3451
     14 H           8.7275   43.9265    5.8843 H       1  UNL1        0.1668
     15 C           6.0055   40.3138    6.7297 C.2     1  UNL1        0.3421
     16 O           5.5213   39.5767    5.8279 O.2     1  UNL1       -0.2449
     17 O           5.4371   40.3245    8.0052 O.3     1  UNL1       -0.4454
     18 C           6.5369   41.3384    9.8779 C.3     1  UNL1        0.0513
     19 C           5.4557   41.4818    8.8274 C.3     1  UNL1        0.2089
     20 C          14.1398   41.8019    7.2560 C.ar    1  UNL1        0.1234
     21 C          15.2800   42.5778    7.2752 C.ar    1  UNL1        0.0728
     22 C          15.5194   43.8060    6.4625 C.3     1  UNL1        0.0531
     23 C          17.4382   42.6373    8.5159 C.3     1  UNL1        0.1518
     24 C          14.3940   40.7790    8.1526 C.ar    1  UNL1        0.2935
     25 O          13.6453   39.7920    8.3828 O.2     1  UNL1       -0.2638
     26 N          16.1507   42.0509    8.1636 N.ar    1  UNL1       -0.2646
     27 N          15.6177   40.9554    8.7036 N.ar    1  UNL1       -0.2134
     28 C          16.2446   40.0984    9.6833 C.ar    1  UNL1        0.0841
     29 C          15.4888   39.1352   10.3717 C.ar    1  UNL1        0.0192
     30 C          16.0922   38.2946   11.3113 C.ar    1  UNL1        0.0015
     31 C          17.4602   38.4057   11.5708 C.ar    1  UNL1        0.0001
     32 C          18.2241   39.3560   10.8895 C.ar    1  UNL1        0.0015
     33 C          17.6193   40.1959    9.9500 C.ar    1  UNL1        0.0192
@<TRIPOS>BOND
     1    18    19    1
     2    19    17    1
     3    15    17    1
     4    15     7    1
     5     8    13   ar
     6     9     8    1
     7    10     3    1
     8     1     4   am
     9    21    26   ar
    10    22    21    1
    11    23    26    1
    12    24    20   ar
    13    29    30   ar
    14    31    32   ar
    15    33    28   ar
    16    11     7   ar
    17    12    11    1
    18    13    10   ar
    19     3     1   am
    20     4    20    1
    21    26    27   ar
    22    27    24   ar
    23    27    28    1
    24    15    16    2
    25     7     8   ar
    26    10    11   ar
    27     1     2    2
    28    20    21   ar
    29    24    25    2
    30    28    29   ar
    31    30    31   ar
    32    32    33   ar
    33    13    14    1
    34     3     5    1
    35     4     6    1
@<TRIPOS>MOLECULE
MolPort-002-278-585 1077129 CHEMBL1366508 CSSS00160326221 ChemDiv-D039-0089 MCULE-8992737878 PubChem-1264627 ZINC000001077129 ZINC01077129
 33 35 0 0 0
SMALL
GASTEIGER

@<TRIPOS>ATOM
      1 C          11.0249   41.8845    7.1253 C.2     1  UNL1        0.3093
      2 O          11.0826   42.5323    8.2049 O.2     1  UNL1       -0.2521
      3 N          12.2095   41.6376    6.3618 N.am    1  UNL1       -0.2551
      4 N           9.7837   41.3380    6.6708 N.am    1  UNL1       -0.2632
      5 H          12.1179   41.0994    5.5425 H       1  UNL1        0.1578
      6 H           9.8279   40.6615    5.9569 H       1  UNL1        0.1566
      7 C          15.4921   42.2943    7.6744 C.ar    1  UNL1        0.0857
      8 C          15.3197   43.2742    6.7037 C.ar    1  UNL1        0.0408
      9 C          16.3059   44.3284    6.3347 C.3     1  UNL1        0.0500
     10 C          13.5185   42.1131    6.6972 C.ar    1  UNL1        0.1085
     11 C          14.3258   41.5510    7.6623 C.ar    1  UNL1        0.0153
     12 C          13.9869   40.3743    8.5136 C.3     1  UNL1        0.0342
     13 N          14.1162   43.1664    6.1047 N.ar    1  UNL1       -0.3451
     14 H          13.7521   43.7351    5.3883 H       1  UNL1        0.1668
     15 C          16.6701   42.0850    8.5407 C.2     1  UNL1        0.3421
     16 O          17.1599   43.0519    9.1859 O.2     1  UNL1       -0.2449
     17 O          17.2398   40.8142    8.6443 O.3     1  UNL1       -0.4454
     18 C          16.3852   39.7261   10.6013 C.3     1  UNL1        0.0513
     19 C          17.6149   40.2576    9.8954 C.3     1  UNL1        0.2089
     20 C           8.4809   41.6849    7.1591 C.ar    1  UNL1        0.1234
     21 C           7.6925   42.7169    6.6947 C.ar    1  UNL1        0.0728
     22 C           8.0048   43.6084    5.5396 C.3     1  UNL1        0.0531
     23 C           5.4677   43.7052    7.2182 C.3     1  UNL1        0.1518
     24 C           7.7886   41.1718    8.2418 C.ar    1  UNL1        0.2935
     25 O           8.1920   40.2639    9.0168 O.2     1  UNL1       -0.2638
     26 N           6.5758   42.7869    7.4516 N.ar    1  UNL1       -0.2646
     27 N           6.6261   41.8478    8.3957 N.ar    1  UNL1       -0.2134
     28 C           5.6289   41.6108    9.4140 C.ar    1  UNL1        0.0841
     29 C           4.4122   40.9905    9.0859 C.ar    1  UNL1        0.0192
     30 C           3.4490   40.7470   10.0691 C.ar    1  UNL1        0.0015
     31 C           3.6934   41.1185   11.3932 C.ar    1  UNL1        0.0001
     32 C           4.9013   41.7316   11.7336 C.ar    1  UNL1        0.0015
     33 C           5.8637   41.9744   10.7494 C.ar    1  UNL1        0.0192
@<TRIPOS>BOND
     1    18    19    1
     2    19    17    1
     3    15    17    1
     4    15     7    1
     5     8    13   ar
     6     9     8    1
     7    10     3    1
     8     1     4   am
     9    21    26   ar
    10    22    21    1
    11    23    26    1
    12    24    20   ar
    13    29    30   ar
    14    31    32   ar
    15    33    28   ar
    16    11     7   ar
    17    12    11    1
    18    13    10   ar
    19     3     1   am
    20     4    20    1
    21    26    27   ar
    22    27    24   ar
    23    27    28    1
    24    15    16    2
    25     7     8   ar
    26    10    11   ar
    27     1     2    2
    28    20    21   ar
    29    24    25    2
    30    28    29   ar
    31    30    31   ar
    32    32    33   ar
    33    13    14    1
    34     3     5    1
    35     4     6    1
@<TRIPOS>MOLECULE
MolPort-002-278-585 1077129 CHEMBL1366508 CSSS00160326221 ChemDiv-D039-0089 MCULE-8992737878 PubChem-1264627 ZINC000001077129 ZINC01077129
 33 35 0 0 0
SMALL
GASTEIGER

@<TRIPOS>ATOM
      1 C          11.8249   41.5525    8.3734 C.2     1  UNL1        0.3093
      2 O          12.0101   41.9261    9.5627 O.2     1  UNL1       -0.2521
      3 N          12.9372   41.2972    7.5102 N.am    1  UNL1       -0.2551
      4 N          10.5016   41.3248    7.8806 N.am    1  UNL1       -0.2632
      5 H          12.7417   40.9765    6.6002 H       1  UNL1        0.1578
      6 H          10.4189   40.8260    7.0358 H       1  UNL1        0.1566
      7 C          16.3106   41.1105    8.7409 C.ar    1  UNL1        0.0857
      8 C          16.2796   42.3077    8.0352 C.ar    1  UNL1        0.0408
      9 C          17.4165   43.2550    7.8619 C.3     1  UNL1        0.0500
     10 C          14.3132   41.4724    7.8678 C.ar    1  UNL1        0.1085
     11 C          15.0386   40.5797    8.6268 C.ar    1  UNL1        0.0153
     12 C          14.5306   39.3006    9.2016 C.3     1  UNL1        0.0342
     13 N          15.0620   42.5317    7.5004 N.ar    1  UNL1       -0.3451
     14 H          14.7802   43.3034    6.9580 H       1  UNL1        0.1668
     15 C          17.4572   40.5228    9.4634 C.2     1  UNL1        0.3421
     16 O          18.5770   40.4172    8.8925 O.2     1  UNL1       -0.2449
     17 O          17.2987   40.0852   10.7801 O.3     1  UNL1       -0.4454
     18 C          17.1581   37.7091   11.0610 C.3     1  UNL1        0.0513
     19 C          17.9914   38.9535   11.2852 C.3     1  UNL1        0.2089
     20 C           9.2843   41.7562    8.5036 C.ar    1  UNL1        0.1234
     21 C           8.8972   41.4791    9.7981 C.ar    1  UNL1        0.0728
     22 C           9.7089   40.7578   10.8214 C.3     1  UNL1        0.0531
     23 C           6.9438   41.9485   11.2694 C.3     1  UNL1        0.1518
     24 C           8.2034   42.4158    7.9456 C.ar    1  UNL1        0.2935
     25 O           8.0965   42.7790    6.7438 O.2     1  UNL1       -0.2638
     26 N           7.6583   41.9790    9.9989 N.ar    1  UNL1       -0.2646
     27 N           7.2291   42.5526    8.8752 N.ar    1  UNL1       -0.2134
     28 C           5.9451   43.1853    8.6797 C.ar    1  UNL1        0.0841
     29 C           4.7825   42.6164    9.2252 C.ar    1  UNL1        0.0192
     30 C           3.5393   43.2307    9.0503 C.ar    1  UNL1        0.0015
     31 C           3.4451   44.4236    8.3300 C.ar    1  UNL1        0.0001
     32 C           4.5943   45.0025    7.7865 C.ar    1  UNL1        0.0015
     33 C           5.8369   44.3871    7.9623 C.ar    1  UNL1        0.0192
@<TRIPOS>BOND
     1    18    19    1
     2    19    17    1
     3    15    17    1
     4    15     7    1
     5     8    13   ar
     6     9     8    1
     7    10     3    1
     8     1     4   am
     9    21    26   ar
    10    22    21    1
    11    23    26    1
    12    24    20   ar
    13    29    30   ar
    14    31    32   ar
    15    33    28   ar
    16    11     7   ar
    17    12    11    1
    18    13    10   ar
    19     3     1   am
    20     4    20    1
    21    26    27   ar
    22    27    24   ar
    23    27    28    1
    24    15    16    2
    25     7     8   ar
    26    10    11   ar
    27     1     2    2
    28    20    21   ar
    29    24    25    2
    30    28    29   ar
    31    30    31   ar
    32    32    33   ar
    33    13    14    1
    34     3     5    1
    35     4     6    1
