@<TRIPOS>MOLECULE
MolPort-008-288-023 MCULE-3234992297 PubChem-46969567
 29 31 0 0 0
SMALL
GASTEIGER

@<TRIPOS>ATOM
      1 C           8.7700   41.5211   10.0096 C.ar    1  UNL1        0.1878
      2 C          10.9174   40.7187   10.7131 C.ar    1  UNL1        0.1127
      3 N           9.0505   41.8107   11.2981 N.ar    1  UNL1       -0.1256
      4 N          10.2438   41.3661   11.6886 N.ar    1  UNL1       -0.1440
      5 S          10.0368   40.6772    9.2781 S.2     1  UNL1       -0.0347
      6 C           6.2210   41.6918    9.8883 C.2     1  UNL1        0.2311
      7 O           6.0402   41.1318   11.0034 O.2     1  UNL1       -0.2746
      8 N           7.5435   41.9190    9.3858 N.am    1  UNL1       -0.2627
      9 H           7.6163   42.3955    8.5274 H       1  UNL1        0.1568
     10 C           2.8285   41.0114    9.3629 C.3     1  UNL1        0.0442
     11 C           3.6766   42.1906    9.7962 C.3     1  UNL1        0.1447
     12 C           5.0450   42.1450    9.0647 C.3     1  UNL1        0.1244
     13 C           5.2455   43.5094    8.3982 C.3     1  UNL1        0.1221
     14 C           3.9309   44.1476    8.5973 C.2     1  UNL1        0.3174
     15 C           3.7819   42.2074   11.3164 C.3     1  UNL1        0.0442
     16 O           3.6214   45.2740    8.1304 O.2     1  UNL1       -0.2501
     17 O           3.0703   43.3962    9.3678 O.3     1  UNL1       -0.4552
     18 C          12.2858   40.1540   10.8926 C.3     1  UNL1        0.0592
     19 C          12.8190   39.5965    9.5747 C.3     1  UNL1        0.0334
     20 C          13.7394   40.5233    8.8305 C.ar    1  UNL1       -0.0186
     21 C          13.3362   41.2251    7.6846 C.ar    1  UNL1        0.0358
     22 C          14.2230   42.0854    7.0179 C.ar    1  UNL1        0.1721
     23 C          15.5273   42.2494    7.5080 C.ar    1  UNL1        0.1724
     24 C          15.9276   41.5507    8.6585 C.ar    1  UNL1        0.0397
     25 C          15.0384   40.6957    9.3133 C.ar    1  UNL1       -0.0009
     26 C          16.8694   44.3275    7.4036 C.3     1  UNL1        0.2526
     27 O          16.4061   43.1085    6.8391 O.3     1  UNL1       -0.4684
     28 C          14.0873   44.1694    5.6886 C.3     1  UNL1        0.2526
     29 O          13.8298   42.7837    5.8711 O.3     1  UNL1       -0.4684
@<TRIPOS>BOND
     1    10    11    1
     2    11    12    1
     3    11    15    1
     4    11    17    1
     5    12    13    1
     6    12     6    1
     7    13    14    1
     8    14    17    1
     9     6     8   am
    10     1     5   ar
    11     2     5   ar
    12    18     2    1
    13    18    19    1
    14    19    20    1
    15    21    22   ar
    16    22    29    1
    17    23    24   ar
    18    23    27    1
    19    25    20   ar
    20    26    27    1
    21    28    29    1
    22     8     1    1
    23     3     4   ar
    24    14    16    2
    25     6     7    2
    26     1     3   ar
    27     2     4   ar
    28    20    21   ar
    29    22    23   ar
    30    24    25   ar
    31     8     9    1
@<TRIPOS>MOLECULE
MolPort-008-288-023 MCULE-3234992297 PubChem-46969567
 29 31 0 0 0
SMALL
GASTEIGER

@<TRIPOS>ATOM
      1 C           8.7799   41.5300    9.9612 C.ar    1  UNL1        0.1878
      2 C          10.9470   40.7470   10.6251 C.ar    1  UNL1        0.1127
      3 N           9.1324   41.9277   11.2024 N.ar    1  UNL1       -0.1256
      4 N          10.3366   41.4939   11.5707 N.ar    1  UNL1       -0.1440
      5 S           9.9919   40.5964    9.2461 S.2     1  UNL1       -0.0347
      6 C           6.2250   41.6221    9.8917 C.2     1  UNL1        0.2311
      7 O           6.0837   41.0423   11.0025 O.2     1  UNL1       -0.2746
      8 N           7.5295   41.8972    9.3668 N.am    1  UNL1       -0.2627
      9 H           7.5704   42.3867    8.5137 H       1  UNL1        0.1568
     10 C           2.8367   40.8659    9.4492 C.3     1  UNL1        0.0442
     11 C           3.6685   42.0638    9.8621 C.3     1  UNL1        0.1447
     12 C           5.0193   42.0486    9.0972 C.3     1  UNL1        0.1244
     13 C           5.1728   43.4171    8.4265 C.3     1  UNL1        0.1221
     14 C           3.8496   44.0257    8.6579 C.2     1  UNL1        0.3174
     15 C           3.8105   42.0833   11.3792 C.3     1  UNL1        0.0442
     16 O           3.5037   45.1448    8.1990 O.2     1  UNL1       -0.2501
     17 O           3.0251   43.2555    9.4490 O.3     1  UNL1       -0.4552
     18 C          12.3130   40.1708   10.7856 C.3     1  UNL1        0.0592
     19 C          12.8331   39.6310    9.4552 C.3     1  UNL1        0.0334
     20 C          13.5986   40.6291    8.6318 C.ar    1  UNL1       -0.0186
     21 C          14.9569   40.9029    8.8514 C.ar    1  UNL1        0.0358
     22 C          15.6399   41.8392    8.0591 C.ar    1  UNL1        0.1721
     23 C          14.9560   42.5050    7.0308 C.ar    1  UNL1        0.1724
     24 C          13.5979   42.2254    6.8084 C.ar    1  UNL1        0.0397
     25 C          12.9270   41.2937    7.6035 C.ar    1  UNL1       -0.0009
     26 C          15.0229   44.1582    5.1887 C.3     1  UNL1        0.2526
     27 O          15.6427   43.4368    6.2446 O.3     1  UNL1       -0.4684
     28 C          17.4390   43.3320    8.8736 C.3     1  UNL1        0.2526
     29 O          16.9928   42.1220    8.2765 O.3     1  UNL1       -0.4684
@<TRIPOS>BOND
     1    10    11    1
     2    11    12    1
     3    11    15    1
     4    11    17    1
     5    12    13    1
     6    12     6    1
     7    13    14    1
     8    14    17    1
     9     6     8   am
    10     1     5   ar
    11     2     5   ar
    12    18     2    1
    13    18    19    1
    14    19    20    1
    15    21    22   ar
    16    22    29    1
    17    23    24   ar
    18    23    27    1
    19    25    20   ar
    20    26    27    1
    21    28    29    1
    22     8     1    1
    23     3     4   ar
    24    14    16    2
    25     6     7    2
    26     1     3   ar
    27     2     4   ar
    28    20    21   ar
    29    22    23   ar
    30    24    25   ar
    31     8     9    1
@<TRIPOS>MOLECULE
MolPort-008-288-023 MCULE-3234992297 PubChem-46969567
 29 31 0 0 0
SMALL
GASTEIGER

@<TRIPOS>ATOM
      1 C           8.7786   41.5069   10.2368 C.ar    1  UNL1        0.1878
      2 C          10.8825   40.6745   11.0311 C.ar    1  UNL1        0.1127
      3 N           9.0537   41.8791   11.5051 N.ar    1  UNL1       -0.1256
      4 N          10.2229   41.4178   11.9460 N.ar    1  UNL1       -0.1440
      5 S          10.0197   40.5625    9.5890 S.2     1  UNL1       -0.0347
      6 C           6.2364   41.6143    9.9781 C.2     1  UNL1        0.2311
      7 O           6.0105   40.9870   11.0483 O.2     1  UNL1       -0.2746
      8 N           7.5774   41.9059    9.5662 N.am    1  UNL1       -0.2627
      9 H           7.6837   42.4323    8.7411 H       1  UNL1        0.1568
     10 C           2.8310   41.0445    9.4068 C.3     1  UNL1        0.0442
     11 C           3.7155   42.2057    9.8150 C.3     1  UNL1        0.1447
     12 C           5.0951   42.0812    9.1143 C.3     1  UNL1        0.1244
     13 C           5.3613   43.4116    8.4034 C.3     1  UNL1        0.1221
     14 C           4.0688   44.1061    8.5519 C.2     1  UNL1        0.3174
     15 C           3.7916   42.2745   11.3354 C.3     1  UNL1        0.0442
     16 O           3.8124   45.2255    8.0382 O.2     1  UNL1       -0.2501
     17 O           3.1649   43.4169    9.3308 O.3     1  UNL1       -0.4552
     18 C          12.2245   40.0712   11.2731 C.3     1  UNL1        0.0592
     19 C          12.7441   39.3825   10.0130 C.3     1  UNL1        0.0334
     20 C          13.3066   40.3156    8.9772 C.ar    1  UNL1       -0.0186
     21 C          12.5609   40.7513    7.8717 C.ar    1  UNL1        0.0358
     22 C          13.1190   41.6265    6.9264 C.ar    1  UNL1        0.1721
     23 C          14.4377   42.0754    7.0934 C.ar    1  UNL1        0.1724
     24 C          15.1809   41.6429    8.2037 C.ar    1  UNL1        0.0397
     25 C          14.6172   40.7706    9.1373 C.ar    1  UNL1       -0.0009
     26 C          14.7887   44.3541    6.1907 C.3     1  UNL1        0.2526
     27 O          14.9879   42.9477    6.1479 O.3     1  UNL1       -0.4684
     28 C          11.3070   41.3119    5.2693 C.3     1  UNL1        0.2526
     29 O          12.3834   42.0602    5.8182 O.3     1  UNL1       -0.4684
@<TRIPOS>BOND
     1    10    11    1
     2    11    12    1
     3    11    15    1
     4    11    17    1
     5    12    13    1
     6    12     6    1
     7    13    14    1
     8    14    17    1
     9     6     8   am
    10     1     5   ar
    11     2     5   ar
    12    18     2    1
    13    18    19    1
    14    19    20    1
    15    21    22   ar
    16    22    29    1
    17    23    24   ar
    18    23    27    1
    19    25    20   ar
    20    26    27    1
    21    28    29    1
    22     8     1    1
    23     3     4   ar
    24    14    16    2
    25     6     7    2
    26     1     3   ar
    27     2     4   ar
    28    20    21   ar
    29    22    23   ar
    30    24    25   ar
    31     8     9    1
@<TRIPOS>MOLECULE
MolPort-008-288-023 MCULE-3234992297 PubChem-46969567
 29 31 0 0 0
SMALL
GASTEIGER

@<TRIPOS>ATOM
      1 C           9.2771   40.4200    9.1488 C.ar    1  UNL1        0.1878
      2 C          11.5183   39.5920    9.3536 C.ar    1  UNL1        0.1127
      3 N           9.8749   40.7822   10.3039 N.ar    1  UNL1       -0.1256
      4 N          11.1202   40.3234   10.4172 N.ar    1  UNL1       -0.1440
      5 S          10.3071   39.4883    8.1880 S.2     1  UNL1       -0.0347
      6 C           7.4603   42.1626    8.6976 C.2     1  UNL1        0.2311
      7 O           8.2409   43.1435    8.8325 O.2     1  UNL1       -0.2746
      8 N           7.9407   40.8185    8.8216 N.am    1  UNL1       -0.2627
      9 H           7.2881   40.0978    8.6667 H       1  UNL1        0.1568
     10 C           4.2963   40.8038    9.3232 C.3     1  UNL1        0.0442
     11 C           5.0121   42.1195    9.5555 C.3     1  UNL1        0.1447
     12 C           6.0033   42.3861    8.3909 C.3     1  UNL1        0.1244
     13 C           5.6931   43.7835    7.8460 C.3     1  UNL1        0.1221
     14 C           4.4483   44.1250    8.5593 C.2     1  UNL1        0.3174
     15 C           5.6589   42.1077   10.9353 C.3     1  UNL1        0.0442
     16 O           3.7889   45.1762    8.3530 O.2     1  UNL1       -0.2501
     17 O           4.0812   43.1848    9.4974 O.3     1  UNL1       -0.4552
     18 C          12.8784   38.9939    9.2282 C.3     1  UNL1        0.0592
     19 C          13.9459   39.9659    9.7257 C.3     1  UNL1        0.0334
     20 C          14.4023   40.9699    8.7041 C.ar    1  UNL1       -0.0186
     21 C          15.7249   41.4336    8.6424 C.ar    1  UNL1        0.0358
     22 C          16.1153   42.3692    7.6712 C.ar    1  UNL1        0.1721
     23 C          15.1714   42.8417    6.7471 C.ar    1  UNL1        0.1724
     24 C          13.8493   42.3721    6.8064 C.ar    1  UNL1        0.0397
     25 C          13.4705   41.4428    7.7777 C.ar    1  UNL1       -0.0009
     26 C          15.1472   45.1313    5.8048 C.3     1  UNL1        0.2526
     27 O          15.5671   43.7739    5.7815 O.3     1  UNL1       -0.4684
     28 C          17.8929   43.9376    8.3848 C.3     1  UNL1        0.2526
     29 O          17.4310   42.8408    7.6078 O.3     1  UNL1       -0.4684
@<TRIPOS>BOND
     1    10    11    1
     2    11    12    1
     3    11    15    1
     4    11    17    1
     5    12    13    1
     6    12     6    1
     7    13    14    1
     8    14    17    1
     9     6     8   am
    10     1     5   ar
    11     2     5   ar
    12    18     2    1
    13    18    19    1
    14    19    20    1
    15    21    22   ar
    16    22    29    1
    17    23    24   ar
    18    23    27    1
    19    25    20   ar
    20    26    27    1
    21    28    29    1
    22     8     1    1
    23     3     4   ar
    24    14    16    2
    25     6     7    2
    26     1     3   ar
    27     2     4   ar
    28    20    21   ar
    29    22    23   ar
    30    24    25   ar
    31     8     9    1
@<TRIPOS>MOLECULE
MolPort-008-288-023 MCULE-3234992297 PubChem-46969567
 29 31 0 0 0
SMALL
GASTEIGER

@<TRIPOS>ATOM
      1 C          14.6637   39.9886    9.4371 C.ar    1  UNL1        0.1878
      2 C          13.4340   37.9544    9.7531 C.ar    1  UNL1        0.1127
      3 N          14.7206   39.5234   10.7033 N.ar    1  UNL1       -0.1256
      4 N          14.0386   38.3929   10.8786 N.ar    1  UNL1       -0.1440
      5 S          13.7371   38.9784    8.4508 S.2     1  UNL1       -0.0347
      6 C          15.0485   41.9724    7.8694 C.2     1  UNL1        0.2311
      7 O          14.0923   41.6700    7.1052 O.2     1  UNL1       -0.2746
      8 N          15.3383   41.1852    9.0310 N.am    1  UNL1       -0.2627
      9 H          16.0734   41.4974    9.6066 H       1  UNL1        0.1568
     10 C          17.4962   44.0022    9.3313 C.3     1  UNL1        0.0442
     11 C          17.3616   43.1239    8.1033 C.3     1  UNL1        0.1447
     12 C          15.9010   43.1793    7.5806 C.3     1  UNL1        0.1244
     13 C          15.9675   43.5487    6.0956 C.3     1  UNL1        0.1221
     14 C          17.3930   43.8853    5.9236 C.2     1  UNL1        0.3174
     15 C          17.8553   41.7193    8.4286 C.3     1  UNL1        0.0442
     16 O          17.8842   44.3250    4.8522 O.2     1  UNL1       -0.2501
     17 O          18.1491   43.6518    7.0517 O.3     1  UNL1       -0.4552
     18 C          12.6359   36.6967    9.6835 C.3     1  UNL1        0.0592
     19 C          11.1720   36.9643   10.0257 C.3     1  UNL1        0.0334
     20 C          10.6079   38.2199    9.4212 C.ar    1  UNL1       -0.0186
     21 C          10.6039   39.4471   10.1009 C.ar    1  UNL1        0.0358
     22 C          10.0716   40.6000    9.5023 C.ar    1  UNL1        0.1721
     23 C           9.5422   40.5243    8.2052 C.ar    1  UNL1        0.1724
     24 C           9.5523   39.2964    7.5239 C.ar    1  UNL1        0.0397
     25 C          10.0823   38.1548    8.1290 C.ar    1  UNL1       -0.0009
     26 C           7.6183   41.8791    7.4345 C.3     1  UNL1        0.2526
     27 O           9.0135   41.6771    7.6142 O.3     1  UNL1       -0.4684
     28 C           9.1858   42.0950   11.2655 C.3     1  UNL1        0.2526
     29 O          10.0585   41.8258   10.1765 O.3     1  UNL1       -0.4684
@<TRIPOS>BOND
     1    10    11    1
     2    11    12    1
     3    11    15    1
     4    11    17    1
     5    12    13    1
     6    12     6    1
     7    13    14    1
     8    14    17    1
     9     6     8   am
    10     1     5   ar
    11     2     5   ar
    12    18     2    1
    13    18    19    1
    14    19    20    1
    15    21    22   ar
    16    22    29    1
    17    23    24   ar
    18    23    27    1
    19    25    20   ar
    20    26    27    1
    21    28    29    1
    22     8     1    1
    23     3     4   ar
    24    14    16    2
    25     6     7    2
    26     1     3   ar
    27     2     4   ar
    28    20    21   ar
    29    22    23   ar
    30    24    25   ar
    31     8     9    1
@<TRIPOS>MOLECULE
MolPort-008-288-023 MCULE-3234992297 PubChem-46969567
 29 31 0 0 0
SMALL
GASTEIGER

@<TRIPOS>ATOM
      1 C          11.6555   38.9922    9.5105 C.ar    1  UNL1        0.1878
      2 C          13.5559   39.0147   10.9727 C.ar    1  UNL1        0.1127
      3 N          11.5759   39.9364   10.4724 N.ar    1  UNL1       -0.1256
      4 N          12.6320   39.9497   11.2839 N.ar    1  UNL1       -0.1440
      5 S          13.0905   38.1100    9.6306 S.2     1  UNL1       -0.0347
      6 C          10.6870   39.2310    7.1555 C.2     1  UNL1        0.2311
      7 O          11.7244   39.7725    6.6860 O.2     1  UNL1       -0.2746
      8 N          10.6305   38.8157    8.5256 N.am    1  UNL1       -0.2627
      9 H           9.8061   38.3645    8.8189 H       1  UNL1        0.1568
     10 C           7.2704   39.9609    6.9505 C.3     1  UNL1        0.0442
     11 C           8.5148   40.1997    6.1188 C.3     1  UNL1        0.1447
     12 C           9.4859   38.9991    6.2777 C.3     1  UNL1        0.1244
     13 C           9.8347   38.5119    4.8681 C.3     1  UNL1        0.1221
     14 C           8.9041   39.2922    4.0315 C.2     1  UNL1        0.3174
     15 C           9.1220   41.5470    6.4908 C.3     1  UNL1        0.0442
     16 O           8.7933   39.1488    2.7866 O.2     1  UNL1       -0.2501
     17 O           8.1732   40.2173    4.7449 O.3     1  UNL1       -0.4552
     18 C          14.8397   38.8474   11.7126 C.3     1  UNL1        0.0592
     19 C          16.0274   38.8918   10.7538 C.3     1  UNL1        0.0334
     20 C          16.0075   40.0425    9.7865 C.ar    1  UNL1       -0.0186
     21 C          17.1184   40.8747    9.5832 C.ar    1  UNL1        0.0358
     22 C          17.0637   41.9379    8.6680 C.ar    1  UNL1        0.1721
     23 C          15.8843   42.1668    7.9434 C.ar    1  UNL1        0.1724
     24 C          14.7751   41.3291    8.1437 C.ar    1  UNL1        0.0397
     25 C          14.8391   40.2754    9.0580 C.ar    1  UNL1       -0.0009
     26 C          14.6611   43.5700    6.3107 C.3     1  UNL1        0.2526
     27 O          15.8365   43.2278    7.0326 O.3     1  UNL1       -0.4684
     28 C          18.0403   44.1078    7.9850 C.3     1  UNL1        0.2526
     29 O          18.1655   42.7758    8.4647 O.3     1  UNL1       -0.4684
@<TRIPOS>BOND
     1    10    11    1
     2    11    12    1
     3    11    15    1
     4    11    17    1
     5    12    13    1
     6    12     6    1
     7    13    14    1
     8    14    17    1
     9     6     8   am
    10     1     5   ar
    11     2     5   ar
    12    18     2    1
    13    18    19    1
    14    19    20    1
    15    21    22   ar
    16    22    29    1
    17    23    24   ar
    18    23    27    1
    19    25    20   ar
    20    26    27    1
    21    28    29    1
    22     8     1    1
    23     3     4   ar
    24    14    16    2
    25     6     7    2
    26     1     3   ar
    27     2     4   ar
    28    20    21   ar
    29    22    23   ar
    30    24    25   ar
    31     8     9    1
@<TRIPOS>MOLECULE
MolPort-008-288-023 MCULE-3234992297 PubChem-46969567
 29 31 0 0 0
SMALL
GASTEIGER

@<TRIPOS>ATOM
      1 C           8.5113   40.8020    7.7055 C.ar    1  UNL1        0.1878
      2 C          10.8872   40.4959    7.5967 C.ar    1  UNL1        0.1127
      3 N           8.8920   39.5200    7.8917 N.ar    1  UNL1       -0.1256
      4 N          10.2117   39.3502    7.8325 N.ar    1  UNL1       -0.1440
      5 S           9.8431   41.8100    7.4562 S.2     1  UNL1       -0.0347
      6 C           6.3940   41.5875    8.9060 C.2     1  UNL1        0.2311
      7 O           6.9472   41.6418   10.0378 O.2     1  UNL1       -0.2746
      8 N           7.1372   41.2047    7.7424 N.am    1  UNL1       -0.2627
      9 H           6.6560   41.2199    6.8836 H       1  UNL1        0.1568
     10 C           3.2269   40.6729   10.0810 C.3     1  UNL1        0.0442
     11 C           4.0912   41.9178   10.0545 C.3     1  UNL1        0.1447
     12 C           4.9375   41.9368    8.7533 C.3     1  UNL1        0.1244
     13 C           4.6933   43.2890    8.0766 C.3     1  UNL1        0.1221
     14 C           3.5948   43.8472    8.8870 C.2     1  UNL1        0.3174
     15 C           4.9138   41.9907   11.3353 C.3     1  UNL1        0.0442
     16 O           3.0183   44.9355    8.6304 O.2     1  UNL1       -0.2501
     17 O           3.2683   43.0672    9.9751 O.3     1  UNL1       -0.4552
     18 C          12.3741   40.5734    7.5151 C.3     1  UNL1        0.0592
     19 C          12.8067   41.5450    6.4194 C.3     1  UNL1        0.0334
     20 C          14.1249   42.2231    6.6696 C.ar    1  UNL1       -0.0186
     21 C          15.0244   41.7817    7.6515 C.ar    1  UNL1        0.0358
     22 C          16.2487   42.4384    7.8538 C.ar    1  UNL1        0.1721
     23 C          16.5787   43.5466    7.0593 C.ar    1  UNL1        0.1724
     24 C          15.6798   43.9835    6.0728 C.ar    1  UNL1        0.0397
     25 C          14.4635   43.3246    5.8808 C.ar    1  UNL1       -0.0009
     26 C          18.4255   44.2735    8.5398 C.3     1  UNL1        0.2526
     27 O          17.8006   44.1963    7.2658 O.3     1  UNL1       -0.4684
     28 C          17.0034   40.7711    9.5209 C.3     1  UNL1        0.2526
     29 O          17.1478   42.0077    8.8354 O.3     1  UNL1       -0.4684
@<TRIPOS>BOND
     1    10    11    1
     2    11    12    1
     3    11    15    1
     4    11    17    1
     5    12    13    1
     6    12     6    1
     7    13    14    1
     8    14    17    1
     9     6     8   am
    10     1     5   ar
    11     2     5   ar
    12    18     2    1
    13    18    19    1
    14    19    20    1
    15    21    22   ar
    16    22    29    1
    17    23    24   ar
    18    23    27    1
    19    25    20   ar
    20    26    27    1
    21    28    29    1
    22     8     1    1
    23     3     4   ar
    24    14    16    2
    25     6     7    2
    26     1     3   ar
    27     2     4   ar
    28    20    21   ar
    29    22    23   ar
    30    24    25   ar
    31     8     9    1
@<TRIPOS>MOLECULE
MolPort-008-288-023 MCULE-3234992297 PubChem-46969567
 29 31 0 0 0
SMALL
GASTEIGER

@<TRIPOS>ATOM
      1 C          11.6564   40.9478   10.3137 C.ar    1  UNL1        0.1878
      2 C           9.9600   42.6251   10.0699 C.ar    1  UNL1        0.1127
      3 N          10.7389   40.9249   11.3040 N.ar    1  UNL1       -0.1256
      4 N           9.7960   41.8558   11.1681 N.ar    1  UNL1       -0.1440
      5 S          11.3194   42.1623    9.1898 S.2     1  UNL1       -0.0347
      6 C          12.8016   38.8103    9.5010 C.2     1  UNL1        0.2311
      7 O          11.8484   38.4795    8.7448 O.2     1  UNL1       -0.2746
      8 N          12.7491   40.0231   10.2621 N.am    1  UNL1       -0.2627
      9 H          13.5420   40.2424   10.8028 H       1  UNL1        0.1568
     10 C          14.6563   36.9855   11.8416 C.3     1  UNL1        0.0442
     11 C          13.9053   36.7116   10.5538 C.3     1  UNL1        0.1447
     12 C          14.0242   37.9384    9.6102 C.3     1  UNL1        0.1244
     13 C          14.5386   37.4226    8.2629 C.3     1  UNL1        0.1221
     14 C          14.8789   36.0224    8.5767 C.2     1  UNL1        0.3174
     15 C          12.4714   36.3109   10.8790 C.3     1  UNL1        0.0442
     16 O          15.4187   35.2329    7.7594 O.2     1  UNL1       -0.2501
     17 O          14.5285   35.6489    9.8560 O.3     1  UNL1       -0.4552
     18 C           9.0211   43.7163    9.6812 C.3     1  UNL1        0.0592
     19 C           8.0811   43.2524    8.5707 C.3     1  UNL1        0.0334
     20 C           6.6708   42.9841    9.0167 C.ar    1  UNL1       -0.0186
     21 C           5.5887   43.7799    8.6120 C.ar    1  UNL1        0.0358
     22 C           4.2840   43.4960    9.0462 C.ar    1  UNL1        0.1721
     23 C           4.0597   42.3986    9.8909 C.ar    1  UNL1        0.1724
     24 C           5.1431   41.5994   10.2903 C.ar    1  UNL1        0.0397
     25 C           6.4374   41.8915    9.8545 C.ar    1  UNL1       -0.0009
     26 C           2.3456   42.2624   11.6726 C.3     1  UNL1        0.2526
     27 O           2.7570   42.1209   10.3198 O.3     1  UNL1       -0.4684
     28 C           3.3013   45.2763    7.6343 C.3     1  UNL1        0.2526
     29 O           3.2010   44.2890    8.6518 O.3     1  UNL1       -0.4684
@<TRIPOS>BOND
     1    10    11    1
     2    11    12    1
     3    11    15    1
     4    11    17    1
     5    12    13    1
     6    12     6    1
     7    13    14    1
     8    14    17    1
     9     6     8   am
    10     1     5   ar
    11     2     5   ar
    12    18     2    1
    13    18    19    1
    14    19    20    1
    15    21    22   ar
    16    22    29    1
    17    23    24   ar
    18    23    27    1
    19    25    20   ar
    20    26    27    1
    21    28    29    1
    22     8     1    1
    23     3     4   ar
    24    14    16    2
    25     6     7    2
    26     1     3   ar
    27     2     4   ar
    28    20    21   ar
    29    22    23   ar
    30    24    25   ar
    31     8     9    1
@<TRIPOS>MOLECULE
MolPort-008-288-023 MCULE-3234992297 PubChem-46969567
 29 31 0 0 0
SMALL
GASTEIGER

@<TRIPOS>ATOM
      1 C           9.9605   38.5456    8.4443 C.ar    1  UNL1        0.1878
      2 C           8.5135   39.8071    7.0073 C.ar    1  UNL1        0.1127
      3 N           9.2648   37.7756    7.5805 N.ar    1  UNL1       -0.1256
      4 N           8.4620   38.4764    6.7815 N.ar    1  UNL1       -0.1440
      5 S           9.5977   40.1822    8.2404 S.2     1  UNL1       -0.0347
      6 C          12.1722   38.5316    9.7286 C.2     1  UNL1        0.2311
      7 O          12.5720   39.6190    9.2309 O.2     1  UNL1       -0.2746
      8 N          10.8902   37.9929    9.3835 N.am    1  UNL1       -0.2627
      9 H          10.6218   37.1610    9.8364 H       1  UNL1        0.1568
     10 C          13.4068   35.3229   10.3827 C.3     1  UNL1        0.0442
     11 C          13.9722   36.7015   10.1049 C.3     1  UNL1        0.1447
     12 C          13.0340   37.7808   10.7086 C.3     1  UNL1        0.1244
     13 C          13.8977   38.6855   11.5926 C.3     1  UNL1        0.1221
     14 C          15.1829   37.9624   11.6137 C.2     1  UNL1        0.3174
     15 C          14.2198   36.8555    8.6091 C.3     1  UNL1        0.0442
     16 O          16.1759   38.3193   12.2985 O.2     1  UNL1       -0.2501
     17 O          15.2018   36.8586   10.7891 O.3     1  UNL1       -0.4552
     18 C           7.7308   40.8062    6.2245 C.3     1  UNL1        0.0592
     19 C           7.9554   42.2159    6.7669 C.3     1  UNL1        0.0334
     20 C           6.7104   42.9050    7.2517 C.ar    1  UNL1       -0.0186
     21 C           5.8757   42.3496    8.2330 C.ar    1  UNL1        0.0358
     22 C           4.7226   43.0248    8.6638 C.ar    1  UNL1        0.1721
     23 C           4.4048   44.2738    8.1095 C.ar    1  UNL1        0.1724
     24 C           5.2446   44.8312    7.1315 C.ar    1  UNL1        0.0397
     25 C           6.3882   44.1505    6.7084 C.ar    1  UNL1       -0.0009
     26 C           2.3073   45.5053    7.6463 C.3     1  UNL1        0.2526
     27 O           3.2544   44.9417    8.5434 O.3     1  UNL1       -0.4684
     28 C           3.0481   41.3510    9.3869 C.3     1  UNL1        0.2526
     29 O           3.8822   42.4741    9.6374 O.3     1  UNL1       -0.4684
@<TRIPOS>BOND
     1    10    11    1
     2    11    12    1
     3    11    15    1
     4    11    17    1
     5    12    13    1
     6    12     6    1
     7    13    14    1
     8    14    17    1
     9     6     8   am
    10     1     5   ar
    11     2     5   ar
    12    18     2    1
    13    18    19    1
    14    19    20    1
    15    21    22   ar
    16    22    29    1
    17    23    24   ar
    18    23    27    1
    19    25    20   ar
    20    26    27    1
    21    28    29    1
    22     8     1    1
    23     3     4   ar
    24    14    16    2
    25     6     7    2
    26     1     3   ar
    27     2     4   ar
    28    20    21   ar
    29    22    23   ar
    30    24    25   ar
    31     8     9    1
@<TRIPOS>MOLECULE
MolPort-008-288-023 MCULE-3234992297 PubChem-46969567
 29 31 0 0 0
SMALL
GASTEIGER

@<TRIPOS>ATOM
      1 C           9.0912   42.0532    9.0805 C.ar    1  UNL1        0.1878
      2 C          11.4059   41.4814    9.3358 C.ar    1  UNL1        0.1127
      3 N           9.5952   42.3986   10.2845 N.ar    1  UNL1       -0.1256
      4 N          10.8812   42.0821   10.4259 N.ar    1  UNL1       -0.1440
      5 S          10.2627   41.3208    8.1095 S.2     1  UNL1       -0.0347
      6 C           6.5624   41.8183    9.3827 C.2     1  UNL1        0.2311
      7 O           6.6613   41.1117   10.4224 O.2     1  UNL1       -0.2746
      8 N           7.7304   42.3146    8.7176 N.am    1  UNL1       -0.2627
      9 H           7.5832   42.8922    7.9341 H       1  UNL1        0.1568
     10 C           3.2069   40.8377    9.5456 C.3     1  UNL1        0.0442
     11 C           4.0192   42.0876    9.8197 C.3     1  UNL1        0.1447
     12 C           5.2079   42.1651    8.8243 C.3     1  UNL1        0.1244
     13 C           5.1480   43.5425    8.1571 C.3     1  UNL1        0.1221
     14 C           3.8512   44.0604    8.6315 C.2     1  UNL1        0.3174
     15 C           4.4309   42.1126   11.2867 C.3     1  UNL1        0.0442
     16 O           3.3556   45.1549    8.2587 O.2     1  UNL1       -0.2501
     17 O           3.2352   43.2345    9.5466 O.3     1  UNL1       -0.4552
     18 C          12.8321   41.0577    9.2353 C.3     1  UNL1        0.0592
     19 C          13.2436   40.2451   10.4610 C.3     1  UNL1        0.0334
     20 C          13.7116   38.8491   10.1574 C.ar    1  UNL1       -0.0186
     21 C          12.9464   37.7145   10.4660 C.ar    1  UNL1        0.0358
     22 C          13.4149   36.4260   10.1637 C.ar    1  UNL1        0.1721
     23 C          14.6620   36.2723    9.5396 C.ar    1  UNL1        0.1724
     24 C          15.4241   37.4094    9.2261 C.ar    1  UNL1        0.0397
     25 C          14.9500   38.6867    9.5328 C.ar    1  UNL1       -0.0009
     26 C          15.9739   34.7100    8.1364 C.3     1  UNL1        0.2526
     27 O          15.1231   34.9855    9.2408 O.3     1  UNL1       -0.4684
     28 C          11.4160   35.3564   11.1581 C.3     1  UNL1        0.2526
     29 O          12.6601   35.2897   10.4742 O.3     1  UNL1       -0.4684
@<TRIPOS>BOND
     1    10    11    1
     2    11    12    1
     3    11    15    1
     4    11    17    1
     5    12    13    1
     6    12     6    1
     7    13    14    1
     8    14    17    1
     9     6     8   am
    10     1     5   ar
    11     2     5   ar
    12    18     2    1
    13    18    19    1
    14    19    20    1
    15    21    22   ar
    16    22    29    1
    17    23    24   ar
    18    23    27    1
    19    25    20   ar
    20    26    27    1
    21    28    29    1
    22     8     1    1
    23     3     4   ar
    24    14    16    2
    25     6     7    2
    26     1     3   ar
    27     2     4   ar
    28    20    21   ar
    29    22    23   ar
    30    24    25   ar
    31     8     9    1
