@<TRIPOS>MOLECULE
MolPort-020-292-447 MCULE-8894391081 PubChem-110264915
 31 33 0 0 0
SMALL
GASTEIGER

@<TRIPOS>ATOM
      1 C          11.6333   40.7993   10.7991 C.ar    1  UNL1        0.0608
      2 C          13.4958   39.3313   10.9387 C.ar    1  UNL1        0.0602
      3 C          13.9527   39.7610    9.6918 C.ar    1  UNL1        0.0294
      4 C          13.2332   40.7360    8.9888 C.ar    1  UNL1        0.0528
      5 C          12.0648   41.2548    9.5504 C.ar    1  UNL1        0.0294
      6 C          14.2516   38.2955   11.6884 C.3     1  UNL1        0.0521
      7 N          12.3549   39.8525   11.4622 N.ar    1  UNL1       -0.2539
      8 C           8.0030   41.9760   12.5276 C.3     1  UNL1        0.0725
      9 C           8.9538   41.2838   13.5015 C.3     1  UNL1        0.0178
     10 C          10.3604   41.1612   12.9085 C.3     1  UNL1        0.0087
     11 C          10.3783   41.3502   11.3886 C.3     1  UNL1        0.0563
     12 C           9.1434   40.7108   10.7408 C.3     1  UNL1        0.0784
     13 N           7.8629   41.2022   11.2865 N.3     1  UNL1       -0.2647
     14 C           7.2948   42.0998   10.2947 C.3     1  UNL1        0.1587
     15 C           5.8055   42.1193   10.4195 C.2     1  UNL1        0.2420
     16 N           4.9737   42.5791    9.3374 N.am    1  UNL1       -0.2784
     17 O           5.2853   41.7504   11.5067 O.2     1  UNL1       -0.2734
     18 C           2.8744   41.3341    9.2949 C.3     1  UNL1        0.0233
     19 C           3.5300   42.6869    9.5038 C.3     1  UNL1        0.0935
     20 C           5.5497   43.1032    8.1056 C.3     1  UNL1        0.0935
     21 C           5.0670   44.5213    7.8603 C.3     1  UNL1        0.0233
     22 N          13.6472   41.2078    7.6990 N.pl3   1  UNL1       -0.2825
     23 H          13.1999   40.8026    6.9212 H       1  UNL1        0.1551
     24 C          14.6398   42.2038    7.4154 C.ar    1  UNL1        0.2200
     25 C          16.8408   43.0492    7.6413 C.ar    1  UNL1        0.0634
     26 C          16.5168   44.1394    6.8364 C.ar    1  UNL1        0.0296
     27 C          15.2196   44.2273    6.3335 C.ar    1  UNL1        0.0634
     28 C          14.8346   45.3695    5.4652 C.3     1  UNL1        0.0522
     29 C          18.2119   42.9175    8.1999 C.3     1  UNL1        0.0522
     30 N          15.9029   42.1056    7.9147 N.ar    1  UNL1       -0.2179
     31 N          14.3089   43.2632    6.6300 N.ar    1  UNL1       -0.2179
@<TRIPOS>BOND
     1    18    19    1
     2    19    16    1
     3    20    16    1
     4    20    21    1
     5    14    15    1
     6    14    13    1
     7     8    13    1
     8     8     9    1
     9     9    10    1
    10    10    11    1
    11    11    12    1
    12    11     1    1
    13    12    13    1
    14     2     7   ar
    15     3     4   ar
    16     4    22    1
    17     5     1   ar
    18    24    31   ar
    19    25    30   ar
    20    26    27   ar
    21    28    27    1
    22    29    25    1
    23     6     2    1
    24    16    15   am
    25    22    24    1
    26    15    17    2
    27     1     7   ar
    28     2     3   ar
    29     4     5   ar
    30    24    30   ar
    31    25    26   ar
    32    27    31   ar
    33    22    23    1
@<TRIPOS>MOLECULE
MolPort-020-292-447 MCULE-8894391081 PubChem-110264915
 31 33 0 0 0
SMALL
GASTEIGER

@<TRIPOS>ATOM
      1 C          10.6341   41.0859   10.6570 C.ar    1  UNL1        0.0608
      2 C           9.2297   41.3943   12.5480 C.ar    1  UNL1        0.0602
      3 C           8.3411   42.1567   11.7883 C.ar    1  UNL1        0.0294
      4 C           8.6065   42.3816   10.4312 C.ar    1  UNL1        0.0528
      5 C           9.7635   41.8412    9.8666 C.ar    1  UNL1        0.0294
      6 C           8.9567   41.1544   13.9882 C.3     1  UNL1        0.0521
      7 N          10.3492   40.8802   11.9736 N.ar    1  UNL1       -0.2539
      8 C          14.3174   39.7491    9.1748 C.3     1  UNL1        0.0725
      9 C          14.1211   39.4866   10.6661 C.3     1  UNL1        0.0178
     10 C          12.6627   39.7047   11.0790 C.3     1  UNL1        0.0087
     11 C          11.8739   40.5202   10.0498 C.3     1  UNL1        0.0563
     12 C          12.7429   41.6310    9.4461 C.3     1  UNL1        0.0784
     13 N          13.9956   41.1424    8.8370 N.3     1  UNL1       -0.2647
     14 C          13.8154   41.1934    7.3958 C.3     1  UNL1        0.1587
     15 C          14.3331   42.4906    6.8636 C.2     1  UNL1        0.2420
     16 N          15.6670   42.9407    7.1672 N.am    1  UNL1       -0.2784
     17 O          13.5672   43.2045    6.1619 O.2     1  UNL1       -0.2734
     18 C          17.1472   44.1012    5.6112 C.3     1  UNL1        0.0233
     19 C          16.1280   44.2507    6.7258 C.3     1  UNL1        0.0935
     20 C          16.5408   42.1843    8.0551 C.3     1  UNL1        0.0935
     21 C          17.4306   43.1262    8.8459 C.3     1  UNL1        0.0233
     22 N           7.7366   43.1664    9.6036 N.pl3   1  UNL1       -0.2825
     23 H           8.1610   43.8852    9.0817 H       1  UNL1        0.1551
     24 C           6.3177   43.0212    9.4510 C.ar    1  UNL1        0.2200
     25 C           4.2309   43.8278    8.6733 C.ar    1  UNL1        0.0634
     26 C           3.5933   42.6949    9.1746 C.ar    1  UNL1        0.0296
     27 C           4.3675   41.7323    9.8208 C.ar    1  UNL1        0.0634
     28 C           3.7286   40.5059   10.3635 C.3     1  UNL1        0.0522
     29 C           3.4429   44.8796    7.9788 C.3     1  UNL1        0.0522
     30 N           5.5737   43.9704    8.8183 N.ar    1  UNL1       -0.2179
     31 N           5.7087   41.9113    9.9468 N.ar    1  UNL1       -0.2179
@<TRIPOS>BOND
     1    18    19    1
     2    19    16    1
     3    20    16    1
     4    20    21    1
     5    14    15    1
     6    14    13    1
     7     8    13    1
     8     8     9    1
     9     9    10    1
    10    10    11    1
    11    11    12    1
    12    11     1    1
    13    12    13    1
    14     2     7   ar
    15     3     4   ar
    16     4    22    1
    17     5     1   ar
    18    24    31   ar
    19    25    30   ar
    20    26    27   ar
    21    28    27    1
    22    29    25    1
    23     6     2    1
    24    16    15   am
    25    22    24    1
    26    15    17    2
    27     1     7   ar
    28     2     3   ar
    29     4     5   ar
    30    24    30   ar
    31    25    26   ar
    32    27    31   ar
    33    22    23    1
@<TRIPOS>MOLECULE
MolPort-020-292-447 MCULE-8894391081 PubChem-110264915
 31 33 0 0 0
SMALL
GASTEIGER

@<TRIPOS>ATOM
      1 C          13.3195   42.1887    7.6613 C.ar    1  UNL1        0.0608
      2 C          14.8208   43.6823    6.5849 C.ar    1  UNL1        0.0602
      3 C          15.9111   43.0483    7.1827 C.ar    1  UNL1        0.0294
      4 C          15.6962   41.9569    8.0343 C.ar    1  UNL1        0.0528
      5 C          14.3888   41.5287    8.2731 C.ar    1  UNL1        0.0294
      6 C          15.0406   44.8422    5.6834 C.3     1  UNL1        0.0521
      7 N          13.5582   43.2454    6.8348 N.ar    1  UNL1       -0.2539
      8 C           9.5584   40.5977    8.5960 C.3     1  UNL1        0.0725
      9 C          10.3788   41.0002    9.8193 C.3     1  UNL1        0.0178
     10 C          11.5886   41.8496    9.4190 C.3     1  UNL1        0.0087
     11 C          11.9245   41.7325    7.9291 C.3     1  UNL1        0.0563
     12 C          11.7132   40.2976    7.4293 C.3     1  UNL1        0.0784
     13 N          10.3540   39.7760    7.6737 N.3     1  UNL1       -0.2647
     14 C           9.6591   39.7863    6.3973 C.3     1  UNL1        0.1587
     15 C           9.1089   41.1497    6.1282 C.2     1  UNL1        0.2420
     16 N           7.7722   41.5056    6.5290 N.am    1  UNL1       -0.2784
     17 O           9.8296   41.9817    5.5142 O.2     1  UNL1       -0.2734
     18 C           6.4227   43.3702    7.3419 C.3     1  UNL1        0.0233
     19 C           7.2107   42.8030    6.1754 C.3     1  UNL1        0.0935
     20 C           6.8818   40.5348    7.1526 C.3     1  UNL1        0.0935
     21 C           6.2950   39.6084    6.1030 C.3     1  UNL1        0.0233
     22 N          16.7758   41.2735    8.6861 N.pl3   1  UNL1       -0.2825
     23 H          17.6822   41.6084    8.4976 H       1  UNL1        0.1551
     24 C          16.6830   40.1569    9.5818 C.ar    1  UNL1        0.2200
     25 C          17.6366   38.2459   10.6060 C.ar    1  UNL1        0.0634
     26 C          16.4607   38.0282   11.3208 C.ar    1  UNL1        0.0296
     27 C          15.3995   38.9125   11.1327 C.ar    1  UNL1        0.0634
     28 C          14.1304   38.7209   11.8808 C.3     1  UNL1        0.0522
     29 C          18.7920   37.3262   10.7752 C.3     1  UNL1        0.0522
     30 N          17.7275   39.3003    9.7547 N.ar    1  UNL1       -0.2179
     31 N          15.5286   39.9556   10.2713 N.ar    1  UNL1       -0.2179
@<TRIPOS>BOND
     1    18    19    1
     2    19    16    1
     3    20    16    1
     4    20    21    1
     5    14    15    1
     6    14    13    1
     7     8    13    1
     8     8     9    1
     9     9    10    1
    10    10    11    1
    11    11    12    1
    12    11     1    1
    13    12    13    1
    14     2     7   ar
    15     3     4   ar
    16     4    22    1
    17     5     1   ar
    18    24    31   ar
    19    25    30   ar
    20    26    27   ar
    21    28    27    1
    22    29    25    1
    23     6     2    1
    24    16    15   am
    25    22    24    1
    26    15    17    2
    27     1     7   ar
    28     2     3   ar
    29     4     5   ar
    30    24    30   ar
    31    25    26   ar
    32    27    31   ar
    33    22    23    1
@<TRIPOS>MOLECULE
MolPort-020-292-447 MCULE-8894391081 PubChem-110264915
 31 33 0 0 0
SMALL
GASTEIGER

@<TRIPOS>ATOM
      1 C          11.7405   40.2264   10.0870 C.ar    1  UNL1        0.0608
      2 C          12.4835   37.9880    9.8025 C.ar    1  UNL1        0.0602
      3 C          13.7478   38.4360    9.4167 C.ar    1  UNL1        0.0294
      4 C          14.0114   39.8112    9.3717 C.ar    1  UNL1        0.0528
      5 C          12.9965   40.7088    9.7090 C.ar    1  UNL1        0.0294
      6 C          12.1956   36.5316    9.8494 C.3     1  UNL1        0.0521
      7 N          11.5131   38.8834   10.1252 N.ar    1  UNL1       -0.2539
      8 C           8.4622   42.6264   11.1089 C.3     1  UNL1        0.0725
      9 C           8.9191   41.6966   12.2307 C.3     1  UNL1        0.0178
     10 C          10.2873   41.0835   11.9184 C.3     1  UNL1        0.0087
     11 C          10.6574   41.1914   10.4360 C.3     1  UNL1        0.0563
     12 C           9.4268   40.9774    9.5454 C.3     1  UNL1        0.0784
     13 N           8.3084   41.8930    9.8450 N.3     1  UNL1       -0.2647
     14 C           8.2770   42.8867    8.7849 C.3     1  UNL1        0.1587
     15 C           7.0318   43.7064    8.8923 C.2     1  UNL1        0.2420
     16 N           5.7297   43.0973    8.8057 N.am    1  UNL1       -0.2784
     17 O           7.1401   44.9543    9.0327 O.2     1  UNL1       -0.2734
     18 C           4.4251   44.7168    7.5274 C.3     1  UNL1        0.0233
     19 C           4.5242   43.9159    8.8128 C.3     1  UNL1        0.0935
     20 C           5.5731   41.6718    8.5458 C.3     1  UNL1        0.0935
     21 C           4.5905   41.0622    9.5293 C.3     1  UNL1        0.0233
     22 N          15.2871   40.3308    8.9718 N.pl3   1  UNL1       -0.2825
     23 H          16.0754   39.8002    9.2293 H       1  UNL1        0.1551
     24 C          15.5433   41.5370    8.2387 C.ar    1  UNL1        0.2200
     25 C          16.9537   43.3578    7.6859 C.ar    1  UNL1        0.0634
     26 C          15.9941   43.8474    6.8022 C.ar    1  UNL1        0.0296
     27 C          14.8003   43.1408    6.6649 C.ar    1  UNL1        0.0634
     28 C          13.7537   43.6242    5.7279 C.3     1  UNL1        0.0522
     29 C          18.2399   44.0812    7.8641 C.3     1  UNL1        0.0522
     30 N          16.7138   42.2177    8.3840 N.ar    1  UNL1       -0.2179
     31 N          14.5971   42.0041    7.3814 N.ar    1  UNL1       -0.2179
@<TRIPOS>BOND
     1    18    19    1
     2    19    16    1
     3    20    16    1
     4    20    21    1
     5    14    15    1
     6    14    13    1
     7     8    13    1
     8     8     9    1
     9     9    10    1
    10    10    11    1
    11    11    12    1
    12    11     1    1
    13    12    13    1
    14     2     7   ar
    15     3     4   ar
    16     4    22    1
    17     5     1   ar
    18    24    31   ar
    19    25    30   ar
    20    26    27   ar
    21    28    27    1
    22    29    25    1
    23     6     2    1
    24    16    15   am
    25    22    24    1
    26    15    17    2
    27     1     7   ar
    28     2     3   ar
    29     4     5   ar
    30    24    30   ar
    31    25    26   ar
    32    27    31   ar
    33    22    23    1
@<TRIPOS>MOLECULE
MolPort-020-292-447 MCULE-8894391081 PubChem-110264915
 31 33 0 0 0
SMALL
GASTEIGER

@<TRIPOS>ATOM
      1 C          13.5184   41.7405    7.5197 C.ar    1  UNL1        0.0608
      2 C          14.7884   43.5312    6.6121 C.ar    1  UNL1        0.0602
      3 C          15.9256   43.0965    7.2947 C.ar    1  UNL1        0.0294
      4 C          15.8541   41.9543    8.1027 C.ar    1  UNL1        0.0528
      5 C          14.6389   41.2757    8.2137 C.ar    1  UNL1        0.0294
      6 C          14.8558   44.7433    5.7562 C.3     1  UNL1        0.0521
      7 N          13.6177   42.8523    6.7381 N.ar    1  UNL1       -0.2539
      8 C          10.0459   39.4045    7.7094 C.3     1  UNL1        0.0725
      9 C          11.2125   38.8416    8.5179 C.3     1  UNL1        0.0178
     10 C          12.3323   39.8755    8.6668 C.3     1  UNL1        0.0087
     11 C          12.2204   41.0166    7.6511 C.3     1  UNL1        0.0563
     12 C          11.7450   40.4952    6.2889 C.3     1  UNL1        0.0784
     13 N          10.4687   39.7559    6.3468 N.3     1  UNL1       -0.2647
     14 C           9.4448   40.6325    5.8032 C.3     1  UNL1        0.1587
     15 C           8.1214   40.3137    6.4205 C.2     1  UNL1        0.2420
     16 N           7.4647   41.2481    7.2979 N.am    1  UNL1       -0.2784
     17 O           7.5977   39.1924    6.1817 O.2     1  UNL1       -0.2734
     18 C           5.5706   42.1241    8.5642 C.3     1  UNL1        0.0233
     19 C           6.2237   40.8888    7.9718 C.3     1  UNL1        0.0935
     20 C           8.0910   42.5104    7.6699 C.3     1  UNL1        0.0935
     21 C           8.8777   42.3482    8.9580 C.3     1  UNL1        0.0233
     22 N          16.9858   41.4671    8.8370 N.pl3   1  UNL1       -0.2825
     23 H          17.7994   42.0205    8.8039 H       1  UNL1        0.1551
     24 C          17.0652   40.2640    9.6142 C.ar    1  UNL1        0.2200
     25 C          16.0716   38.6631   11.0495 C.ar    1  UNL1        0.0634
     26 C          17.2629   37.9417   11.0882 C.ar    1  UNL1        0.0296
     27 C          18.3521   38.4250   10.3647 C.ar    1  UNL1        0.0634
     28 C          19.6387   37.6824   10.3728 C.3     1  UNL1        0.0522
     29 C          14.8862   38.1843   11.8078 C.3     1  UNL1        0.0522
     30 N          15.9933   39.8043   10.3172 N.ar    1  UNL1       -0.2179
     31 N          18.2347   39.5713    9.6442 N.ar    1  UNL1       -0.2179
@<TRIPOS>BOND
     1    18    19    1
     2    19    16    1
     3    20    16    1
     4    20    21    1
     5    14    15    1
     6    14    13    1
     7     8    13    1
     8     8     9    1
     9     9    10    1
    10    10    11    1
    11    11    12    1
    12    11     1    1
    13    12    13    1
    14     2     7   ar
    15     3     4   ar
    16     4    22    1
    17     5     1   ar
    18    24    31   ar
    19    25    30   ar
    20    26    27   ar
    21    28    27    1
    22    29    25    1
    23     6     2    1
    24    16    15   am
    25    22    24    1
    26    15    17    2
    27     1     7   ar
    28     2     3   ar
    29     4     5   ar
    30    24    30   ar
    31    25    26   ar
    32    27    31   ar
    33    22    23    1
@<TRIPOS>MOLECULE
MolPort-020-292-447 MCULE-8894391081 PubChem-110264915
 31 33 0 0 0
SMALL
GASTEIGER

@<TRIPOS>ATOM
      1 C          11.6732   40.2460   10.0824 C.ar    1  UNL1        0.0608
      2 C          12.4006   38.0024    9.7991 C.ar    1  UNL1        0.0602
      3 C          13.6642   38.4417    9.4009 C.ar    1  UNL1        0.0294
      4 C          13.9354   39.8151    9.3490 C.ar    1  UNL1        0.0528
      5 C          12.9287   40.7199    9.6920 C.ar    1  UNL1        0.0294
      6 C          12.1047   36.5479    9.8534 C.3     1  UNL1        0.0521
      7 N          11.4384   38.9045   10.1272 N.ar    1  UNL1       -0.2539
      8 C           8.4202   42.6682   11.1324 C.3     1  UNL1        0.0725
      9 C           8.9013   41.7588   12.2608 C.3     1  UNL1        0.0178
     10 C          10.2617   41.1385   11.9295 C.3     1  UNL1        0.0087
     11 C          10.5989   41.2185   10.4375 C.3     1  UNL1        0.0563
     12 C           9.3486   40.9895    9.5786 C.3     1  UNL1        0.0784
     13 N           8.2378   41.9117    9.8860 N.3     1  UNL1       -0.2647
     14 C           8.1836   42.8857    8.8087 C.3     1  UNL1        0.1587
     15 C           6.9354   43.7003    8.9212 C.2     1  UNL1        0.2420
     16 N           5.6371   43.0769    8.9211 N.am    1  UNL1       -0.2784
     17 O           7.0365   44.9548    8.9882 O.2     1  UNL1       -0.2734
     18 C           4.3022   44.6667    7.6369 C.3     1  UNL1        0.0233
     19 C           4.4246   43.8851    8.9321 C.3     1  UNL1        0.0935
     20 C           5.4847   41.6380    8.7466 C.3     1  UNL1        0.0935
     21 C           4.1560   41.1763    9.3172 C.3     1  UNL1        0.0233
     22 N          15.2106   40.3259    8.9363 N.pl3   1  UNL1       -0.2825
     23 H          15.9981   39.7926    9.1906 H       1  UNL1        0.1551
     24 C          15.4673   41.5267    8.1946 C.ar    1  UNL1        0.2200
     25 C          14.8030   43.1577    6.6107 C.ar    1  UNL1        0.0634
     26 C          16.0015   43.8432    6.7970 C.ar    1  UNL1        0.0296
     27 C          16.9238   43.3269    7.7061 C.ar    1  UNL1        0.0634
     28 C          18.2109   44.0308    7.9402 C.3     1  UNL1        0.0522
     29 C          13.7925   43.6723    5.6497 C.3     1  UNL1        0.0522
     30 N          14.5575   42.0188    7.3088 N.ar    1  UNL1       -0.2179
     31 N          16.6420   42.1841    8.3853 N.ar    1  UNL1       -0.2179
@<TRIPOS>BOND
     1    18    19    1
     2    19    16    1
     3    20    16    1
     4    20    21    1
     5    14    15    1
     6    14    13    1
     7     8    13    1
     8     8     9    1
     9     9    10    1
    10    10    11    1
    11    11    12    1
    12    11     1    1
    13    12    13    1
    14     2     7   ar
    15     3     4   ar
    16     4    22    1
    17     5     1   ar
    18    24    31   ar
    19    25    30   ar
    20    26    27   ar
    21    28    27    1
    22    29    25    1
    23     6     2    1
    24    16    15   am
    25    22    24    1
    26    15    17    2
    27     1     7   ar
    28     2     3   ar
    29     4     5   ar
    30    24    30   ar
    31    25    26   ar
    32    27    31   ar
    33    22    23    1
@<TRIPOS>MOLECULE
MolPort-020-292-447 MCULE-8894391081 PubChem-110264915
 31 33 0 0 0
SMALL
GASTEIGER

@<TRIPOS>ATOM
      1 C          12.0546   40.1067   10.1348 C.ar    1  UNL1        0.0608
      2 C          13.0479   37.9741   10.4650 C.ar    1  UNL1        0.0602
      3 C          14.2916   38.4708   10.0720 C.ar    1  UNL1        0.0294
      4 C          14.4159   39.8180    9.7081 C.ar    1  UNL1        0.0528
      5 C          13.2858   40.6374    9.7403 C.ar    1  UNL1        0.0294
      6 C          12.9077   36.5461   10.8489 C.3     1  UNL1        0.0521
      7 N          11.9635   38.7934   10.4868 N.ar    1  UNL1       -0.2539
      8 C           8.4546   42.2473   10.2298 C.3     1  UNL1        0.0725
      9 C           8.7545   41.4877   11.5201 C.3     1  UNL1        0.0178
     10 C          10.2026   40.9904   11.5455 C.3     1  UNL1        0.0087
     11 C          10.8490   40.9853   10.1568 C.3     1  UNL1        0.0563
     12 C           9.8407   40.5568    9.0830 C.3     1  UNL1        0.0784
     13 N           8.6143   41.3779    9.0561 N.3     1  UNL1       -0.2647
     14 C           8.7127   42.2508    7.8982 C.3     1  UNL1        0.1587
     15 C           9.6911   41.6882    6.9183 C.2     1  UNL1        0.2420
     16 N           9.2774   40.7462    5.9105 N.am    1  UNL1       -0.2784
     17 O          10.9003   42.0326    7.0063 O.2     1  UNL1       -0.2734
     18 C           9.5535   39.4166    3.8820 C.3     1  UNL1        0.0233
     19 C          10.2553   40.1293    5.0236 C.3     1  UNL1        0.0935
     20 C           7.9068   40.2552    5.8459 C.3     1  UNL1        0.0935
     21 C           7.7630   38.9862    6.6664 C.3     1  UNL1        0.0233
     22 N          15.6650   40.3818    9.2846 N.pl3   1  UNL1       -0.2825
     23 H          16.4791   39.9245    9.5967 H       1  UNL1        0.1551
     24 C          15.8610   41.5372    8.4574 C.ar    1  UNL1        0.2200
     25 C          17.1814   43.3732    7.7533 C.ar    1  UNL1        0.0634
     26 C          16.1967   43.7460    6.8408 C.ar    1  UNL1        0.0296
     27 C          15.0374   42.9753    6.7678 C.ar    1  UNL1        0.0634
     28 C          13.9658   43.3336    5.8033 C.3     1  UNL1        0.0522
     29 C          18.4324   44.1682    7.8650 C.3     1  UNL1        0.0522
     30 N          16.9983   42.2816    8.5404 N.ar    1  UNL1       -0.2179
     31 N          14.8908   41.8903    7.5728 N.ar    1  UNL1       -0.2179
@<TRIPOS>BOND
     1    18    19    1
     2    19    16    1
     3    20    16    1
     4    20    21    1
     5    14    15    1
     6    14    13    1
     7     8    13    1
     8     8     9    1
     9     9    10    1
    10    10    11    1
    11    11    12    1
    12    11     1    1
    13    12    13    1
    14     2     7   ar
    15     3     4   ar
    16     4    22    1
    17     5     1   ar
    18    24    31   ar
    19    25    30   ar
    20    26    27   ar
    21    28    27    1
    22    29    25    1
    23     6     2    1
    24    16    15   am
    25    22    24    1
    26    15    17    2
    27     1     7   ar
    28     2     3   ar
    29     4     5   ar
    30    24    30   ar
    31    25    26   ar
    32    27    31   ar
    33    22    23    1
@<TRIPOS>MOLECULE
MolPort-020-292-447 MCULE-8894391081 PubChem-110264915
 31 33 0 0 0
SMALL
GASTEIGER

@<TRIPOS>ATOM
      1 C          10.9334   38.6940    8.8417 C.ar    1  UNL1        0.0608
      2 C          11.8936   36.9295   10.1098 C.ar    1  UNL1        0.0602
      3 C          13.1070   37.6154   10.1820 C.ar    1  UNL1        0.0294
      4 C          13.2301   38.8711    9.5732 C.ar    1  UNL1        0.0528
      5 C          12.1327   39.4094    8.8982 C.ar    1  UNL1        0.0294
      6 C          11.7565   35.5962   10.7500 C.3     1  UNL1        0.0521
      7 N          10.8410   37.4761    9.4459 N.ar    1  UNL1       -0.2539
      8 C           7.8882   40.3185    6.4672 C.3     1  UNL1        0.0725
      9 C           8.3227   38.9185    6.0398 C.3     1  UNL1        0.0178
     10 C           9.1970   38.2596    7.1106 C.3     1  UNL1        0.0087
     11 C           9.7680   39.2703    8.1099 C.3     1  UNL1        0.0563
     12 C          10.1557   40.5781    7.4079 C.3     1  UNL1        0.0784
     13 N           9.0501   41.1986    6.6519 N.3     1  UNL1       -0.2647
     14 C           8.5928   42.3395    7.4275 C.3     1  UNL1        0.1587
     15 C           9.2435   42.3341    8.7731 C.2     1  UNL1        0.2420
     16 N           8.5230   41.9131    9.9469 N.am    1  UNL1       -0.2784
     17 O          10.4348   42.7342    8.8698 O.2     1  UNL1       -0.2734
     18 C          10.1338   40.8795   11.4620 C.3     1  UNL1        0.0233
     19 C           9.1339   42.0045   11.2667 C.3     1  UNL1        0.0935
     20 C           7.1161   41.5385    9.8815 C.3     1  UNL1        0.0935
     21 C           6.5221   41.4776   11.2771 C.3     1  UNL1        0.0233
     22 N          14.4548   39.6171    9.6039 N.pl3   1  UNL1       -0.2825
     23 H          15.1153   39.3452   10.2814 H       1  UNL1        0.1551
     24 C          14.8252   40.7150    8.7581 C.ar    1  UNL1        0.2200
     25 C          14.3050   42.2778    7.0560 C.ar    1  UNL1        0.0634
     26 C          15.5796   42.8312    7.1589 C.ar    1  UNL1        0.0296
     27 C          16.4635   42.2864    8.0891 C.ar    1  UNL1        0.0634
     28 C          17.8295   42.8514    8.2362 C.3     1  UNL1        0.0522
     29 C          13.3317   42.8271    6.0760 C.3     1  UNL1        0.0522
     30 N          13.9515   41.2363    7.8529 N.ar    1  UNL1       -0.2179
     31 N          16.0729   41.2437    8.8682 N.ar    1  UNL1       -0.2179
@<TRIPOS>BOND
     1    18    19    1
     2    19    16    1
     3    20    16    1
     4    20    21    1
     5    14    15    1
     6    14    13    1
     7     8    13    1
     8     8     9    1
     9     9    10    1
    10    10    11    1
    11    11    12    1
    12    11     1    1
    13    12    13    1
    14     2     7   ar
    15     3     4   ar
    16     4    22    1
    17     5     1   ar
    18    24    31   ar
    19    25    30   ar
    20    26    27   ar
    21    28    27    1
    22    29    25    1
    23     6     2    1
    24    16    15   am
    25    22    24    1
    26    15    17    2
    27     1     7   ar
    28     2     3   ar
    29     4     5   ar
    30    24    30   ar
    31    25    26   ar
    32    27    31   ar
    33    22    23    1
@<TRIPOS>MOLECULE
MolPort-020-292-447 MCULE-8894391081 PubChem-110264915
 31 33 0 0 0
SMALL
GASTEIGER

@<TRIPOS>ATOM
      1 C          13.3795   41.8343    7.2457 C.ar    1  UNL1        0.0608
      2 C          14.7580   43.6112    6.4804 C.ar    1  UNL1        0.0602
      3 C          15.8362   43.1179    7.2167 C.ar    1  UNL1        0.0294
      4 C          15.6793   41.9531    7.9791 C.ar    1  UNL1        0.0528
      5 C          14.4394   41.3111    7.9913 C.ar    1  UNL1        0.0294
      6 C          14.9159   44.8475    5.6724 C.3     1  UNL1        0.0521
      7 N          13.5615   42.9669    6.5104 N.ar    1  UNL1       -0.2539
      8 C           9.5188   40.2129    7.1119 C.3     1  UNL1        0.0725
      9 C          10.1839   40.3351    5.7429 C.3     1  UNL1        0.0178
     10 C          11.6801   40.6319    5.8792 C.3     1  UNL1        0.0087
     11 C          12.0544   41.1491    7.2716 C.3     1  UNL1        0.0563
     12 C          10.9676   42.0814    7.8219 C.3     1  UNL1        0.0784
     13 N           9.6245   41.4705    7.8644 N.3     1  UNL1       -0.2647
     14 C           9.3464   41.1516    9.2548 C.3     1  UNL1        0.1587
     15 C           7.9023   41.3949    9.5540 C.2     1  UNL1        0.2420
     16 N           7.4570   41.6774   10.8941 N.am    1  UNL1       -0.2784
     17 O           7.0691   41.3203    8.6112 O.2     1  UNL1       -0.2734
     18 C           5.2091   41.0698   10.1618 C.3     1  UNL1        0.0233
     19 C           6.0372   41.8157   11.1919 C.3     1  UNL1        0.0935
     20 C           8.3830   41.6736   12.0195 C.3     1  UNL1        0.0935
     21 C           9.6766   40.9790   11.6344 C.3     1  UNL1        0.0233
     22 N          16.7472   41.4059    8.7649 N.pl3   1  UNL1       -0.2825
     23 H          17.6142   41.8687    8.7067 H       1  UNL1        0.1551
     24 C          16.6938   40.2599    9.6261 C.ar    1  UNL1        0.2200
     25 C          15.5298   38.8840   11.1631 C.ar    1  UNL1        0.0634
     26 C          16.6348   38.0410   11.2626 C.ar    1  UNL1        0.0296
     27 C          17.7707   38.3494   10.5156 C.ar    1  UNL1        0.0634
     28 C          18.9680   37.4729   10.5869 C.3     1  UNL1        0.0522
     29 C          14.2988   38.5931   11.9437 C.3     1  UNL1        0.0522
     30 N          15.5776   39.9717   10.3511 N.ar    1  UNL1       -0.2179
     31 N          17.7801   39.4473    9.7147 N.ar    1  UNL1       -0.2179
@<TRIPOS>BOND
     1    18    19    1
     2    19    16    1
     3    20    16    1
     4    20    21    1
     5    14    15    1
     6    14    13    1
     7     8    13    1
     8     8     9    1
     9     9    10    1
    10    10    11    1
    11    11    12    1
    12    11     1    1
    13    12    13    1
    14     2     7   ar
    15     3     4   ar
    16     4    22    1
    17     5     1   ar
    18    24    31   ar
    19    25    30   ar
    20    26    27   ar
    21    28    27    1
    22    29    25    1
    23     6     2    1
    24    16    15   am
    25    22    24    1
    26    15    17    2
    27     1     7   ar
    28     2     3   ar
    29     4     5   ar
    30    24    30   ar
    31    25    26   ar
    32    27    31   ar
    33    22    23    1
@<TRIPOS>MOLECULE
MolPort-020-292-447 MCULE-8894391081 PubChem-110264915
 31 33 0 0 0
SMALL
GASTEIGER

@<TRIPOS>ATOM
      1 C          13.1269   41.7457    7.5786 C.ar    1  UNL1        0.0608
      2 C          14.5285   43.2545    6.3944 C.ar    1  UNL1        0.0602
      3 C          15.6457   42.7971    7.0949 C.ar    1  UNL1        0.0294
      4 C          15.4961   41.7873    8.0542 C.ar    1  UNL1        0.0528
      5 C          14.2250   41.2620    8.2950 C.ar    1  UNL1        0.0294
      6 C          14.6788   44.3273    5.3781 C.3     1  UNL1        0.0521
      7 N          13.3022   42.7262    6.6487 N.ar    1  UNL1       -0.2539
      8 C           9.2885   40.1089    7.9510 C.3     1  UNL1        0.0725
      9 C          10.3387   39.1132    7.4638 C.3     1  UNL1        0.0178
     10 C          11.7541   39.6692    7.6446 C.3     1  UNL1        0.0087
     11 C          11.7699   41.1873    7.8484 C.3     1  UNL1        0.0563
     12 C          10.7133   41.8705    6.9708 C.3     1  UNL1        0.0784
     13 N           9.3450   41.3567    7.1774 N.3     1  UNL1       -0.2647
     14 C           8.6261   42.3592    7.9458 C.3     1  UNL1        0.1587
     15 C           8.4080   41.8709    9.3415 C.2     1  UNL1        0.2420
     16 N           7.0819   41.7557    9.8913 N.am    1  UNL1       -0.2784
     17 O           9.4135   41.5859   10.0460 O.2     1  UNL1       -0.2734
     18 C           7.8592   42.1193   12.1765 C.3     1  UNL1        0.0233
     19 C           6.8850   41.3730   11.2835 C.3     1  UNL1        0.0935
     20 C           5.9069   42.1702    9.1351 C.3     1  UNL1        0.0935
     21 C           4.8287   41.1045    9.2118 C.3     1  UNL1        0.0233
     22 N          16.6050   41.2857    8.8133 N.pl3   1  UNL1       -0.2825
     23 H          17.4430   41.7990    8.7542 H       1  UNL1        0.1551
     24 C          16.6299   40.1200    9.6490 C.ar    1  UNL1        0.2200
     25 C          17.7718   38.2547   10.5583 C.ar    1  UNL1        0.0634
     26 C          16.6328   37.8919   11.2740 C.ar    1  UNL1        0.0296
     27 C          15.4918   38.6827   11.1457 C.ar    1  UNL1        0.0634
     28 C          14.2582   38.3355   11.8970 C.3     1  UNL1        0.0522
     29 C          19.0095   37.4384   10.6648 C.3     1  UNL1        0.0522
     30 N          17.7514   39.3560    9.7637 N.ar    1  UNL1       -0.2179
     31 N          15.5104   39.7769   10.3400 N.ar    1  UNL1       -0.2179
@<TRIPOS>BOND
     1    18    19    1
     2    19    16    1
     3    20    16    1
     4    20    21    1
     5    14    15    1
     6    14    13    1
     7     8    13    1
     8     8     9    1
     9     9    10    1
    10    10    11    1
    11    11    12    1
    12    11     1    1
    13    12    13    1
    14     2     7   ar
    15     3     4   ar
    16     4    22    1
    17     5     1   ar
    18    24    31   ar
    19    25    30   ar
    20    26    27   ar
    21    28    27    1
    22    29    25    1
    23     6     2    1
    24    16    15   am
    25    22    24    1
    26    15    17    2
    27     1     7   ar
    28     2     3   ar
    29     4     5   ar
    30    24    30   ar
    31    25    26   ar
    32    27    31   ar
    33    22    23    1
