@<TRIPOS>MOLECULE
MolPort-006-579-754 ChemDiv-V018-7053 MCULE-7734573866 PubChem-46040718 ZINC000037544477 ZINC37544477
 31 33 0 0 0
SMALL
GASTEIGER

@<TRIPOS>ATOM
      1 C          10.5916   42.9336   10.2376 C.3     1  UNL1        0.1015
      2 C           9.5199   43.8129   10.8597 C.3     1  UNL1        0.0435
      3 C           8.4583   42.9444   11.5278 C.3     1  UNL1        0.0971
      4 C           8.7323   41.4694    9.4827 C.2     1  UNL1        0.3112
      5 O           8.2693   40.5750    8.7229 O.2     1  UNL1       -0.2520
      6 N          10.0029   42.0922    9.1967 N.am    1  UNL1       -0.2430
      7 N           7.9949   41.8628   10.6565 N.am    1  UNL1       -0.2596
      8 C          12.8016   42.0251    6.6745 C.ar    1  UNL1        0.0516
      9 C          12.0808   42.2655    7.8485 C.ar    1  UNL1        0.0296
     10 C          10.7417   41.8596    7.9762 C.ar    1  UNL1        0.0565
     11 C          10.1379   41.1887    6.8994 C.ar    1  UNL1        0.0150
     12 C          10.8492   40.9432    5.7229 C.ar    1  UNL1        0.0026
     13 C          12.1761   41.3614    5.6103 C.ar    1  UNL1        0.0148
     14 C          14.6302   43.7031    6.0324 C.2     1  UNL1        0.2563
     15 O          13.8346   44.5249    5.5063 O.2     1  UNL1       -0.2720
     16 N          14.1621   42.4712    6.5972 N.am    1  UNL1       -0.2818
     17 H          14.8457   41.8691    6.9707 H       1  UNL1        0.1549
     18 C          16.0848   44.0138    6.0569 C.3     1  UNL1        0.2273
     19 C          17.3970   43.7572    7.8110 C.3     1  UNL1        0.1748
     20 O          16.4221   44.5983    7.2772 O.3     1  UNL1       -0.3417
     21 C           6.7632   41.1788   11.0335 C.3     1  UNL1        0.1217
     22 C           5.5815   41.8283   10.3932 C.ar    1  UNL1       -0.0023
     23 C           5.7696   42.8090    9.4143 C.ar    1  UNL1        0.0012
     24 C           4.6673   43.4087    8.7888 C.ar    1  UNL1        0.0712
     25 C           3.3722   43.0382    9.1788 C.ar    1  UNL1        0.0038
     26 C           3.1821   42.0589   10.1578 C.ar    1  UNL1       -0.0003
     27 C           4.2859   41.4518   10.7623 C.ar    1  UNL1       -0.0026
     28 C           4.8700   44.4963    7.7744 C.3     1  UNL1        0.4186
     29 F           5.8981   45.3216    8.1894 F       1  UNL1       -0.1659
     30 F           3.7152   45.2468    7.6366 F       1  UNL1       -0.1659
     31 F           5.1941   43.9550    6.5423 F       1  UNL1       -0.1659
@<TRIPOS>BOND
     1    19    20    1
     2    18    20    1
     3    18    14    1
     4    14    16   am
     5     9    10   ar
     6    10     6    1
     7    11    12   ar
     8    13     8   ar
     9     1     6    1
    10     1     2    1
    11     2     3    1
    12     3     7    1
    13    21     7    1
    14    21    22    1
    15    23    24   ar
    16    25    26   ar
    17    27    22   ar
    18    28    24    1
    19    28    29    1
    20    28    30    1
    21    28    31    1
    22     4     6   am
    23    16     8    1
    24     7     4   am
    25    14    15    2
    26     8     9   ar
    27    10    11   ar
    28    12    13   ar
    29    22    23   ar
    30    24    25   ar
    31    26    27   ar
    32     4     5    2
    33    16    17    1
@<TRIPOS>MOLECULE
MolPort-006-579-754 ChemDiv-V018-7053 MCULE-7734573866 PubChem-46040718 ZINC000037544477 ZINC37544477
 31 33 0 0 0
SMALL
GASTEIGER

@<TRIPOS>ATOM
      1 C          12.1742   39.6317   11.2167 C.3     1  UNL1        0.1015
      2 C          12.6935   38.6737   10.1578 C.3     1  UNL1        0.0435
      3 C          13.5940   39.4203    9.1783 C.3     1  UNL1        0.0971
      4 C          11.8567   41.2588    9.3667 C.2     1  UNL1        0.3112
      5 O          11.3203   42.2948    8.8866 O.2     1  UNL1       -0.2520
      6 N          11.3619   40.6737   10.5901 N.am    1  UNL1       -0.2430
      7 N          12.9845   40.6617    8.6973 N.am    1  UNL1       -0.2596
      8 C           7.9317   42.1239   11.1637 C.ar    1  UNL1        0.0516
      9 C           9.1045   41.7060   10.5270 C.ar    1  UNL1        0.0296
     10 C          10.1573   41.1221   11.2515 C.ar    1  UNL1        0.0565
     11 C          10.0043   40.9502   12.6376 C.ar    1  UNL1        0.0150
     12 C           8.8368   41.3636   13.2829 C.ar    1  UNL1        0.0026
     13 C           7.8046   41.9498   12.5486 C.ar    1  UNL1        0.0148
     14 C           6.2580   42.1558    9.2222 C.2     1  UNL1        0.2563
     15 O           6.6010   41.0306    8.7731 O.2     1  UNL1       -0.2720
     16 N           6.8947   42.7227   10.3749 N.am    1  UNL1       -0.2818
     17 H           6.5882   43.6157   10.6538 H       1  UNL1        0.1549
     18 C           5.1787   42.9143    8.5344 C.3     1  UNL1        0.2273
     19 C           7.1066   43.5798    7.6948 C.3     1  UNL1        0.1748
     20 O           5.7287   43.7157    7.5345 O.3     1  UNL1       -0.3417
     21 C          13.5773   41.2881    7.5211 C.3     1  UNL1        0.1217
     22 C          14.9792   41.7170    7.8015 C.ar    1  UNL1       -0.0023
     23 C          15.5692   42.7221    7.0286 C.ar    1  UNL1        0.0012
     24 C          16.8769   43.1499    7.2983 C.ar    1  UNL1        0.0712
     25 C          17.6000   42.5360    8.3313 C.ar    1  UNL1        0.0038
     26 C          17.0124   41.5306    9.1043 C.ar    1  UNL1       -0.0003
     27 C          15.7018   41.1236    8.8419 C.ar    1  UNL1       -0.0026
     28 C          17.5264   44.1933    6.4366 C.3     1  UNL1        0.4186
     29 F          18.6534   44.6756    7.0749 F       1  UNL1       -0.1659
     30 F          16.6518   45.2418    6.2091 F       1  UNL1       -0.1659
     31 F          17.8942   43.6530    5.2163 F       1  UNL1       -0.1659
@<TRIPOS>BOND
     1    19    20    1
     2    18    20    1
     3    18    14    1
     4    14    16   am
     5     9    10   ar
     6    10     6    1
     7    11    12   ar
     8    13     8   ar
     9     1     6    1
    10     1     2    1
    11     2     3    1
    12     3     7    1
    13    21     7    1
    14    21    22    1
    15    23    24   ar
    16    25    26   ar
    17    27    22   ar
    18    28    24    1
    19    28    29    1
    20    28    30    1
    21    28    31    1
    22     4     6   am
    23    16     8    1
    24     7     4   am
    25    14    15    2
    26     8     9   ar
    27    10    11   ar
    28    12    13   ar
    29    22    23   ar
    30    24    25   ar
    31    26    27   ar
    32     4     5    2
    33    16    17    1
@<TRIPOS>MOLECULE
MolPort-006-579-754 ChemDiv-V018-7053 MCULE-7734573866 PubChem-46040718 ZINC000037544477 ZINC37544477
 31 33 0 0 0
SMALL
GASTEIGER

@<TRIPOS>ATOM
      1 C          10.8529   40.2601   10.9638 C.3     1  UNL1        0.1015
      2 C           9.9726   41.0217   11.9404 C.3     1  UNL1        0.0435
      3 C           8.8884   41.7798   11.1805 C.3     1  UNL1        0.0971
      4 C          10.7462   42.2852    9.5292 C.2     1  UNL1        0.3112
      5 O          11.2003   43.0038    8.5970 O.2     1  UNL1       -0.2520
      6 N          11.5277   41.1970   10.0667 N.am    1  UNL1       -0.2430
      7 N           9.4283   42.5415   10.0527 N.am    1  UNL1       -0.2596
      8 C          14.8617   41.4682    8.3318 C.ar    1  UNL1        0.0516
      9 C          13.5245   41.6903    8.6757 C.ar    1  UNL1        0.0296
     10 C          12.9046   40.9542    9.6994 C.ar    1  UNL1        0.0565
     11 C          13.6625   39.9922   10.3881 C.ar    1  UNL1        0.0150
     12 C          14.9987   39.7632   10.0529 C.ar    1  UNL1        0.0026
     13 C          15.5958   40.4977    9.0271 C.ar    1  UNL1        0.0148
     14 C          16.4796   43.2208    7.3924 C.2     1  UNL1        0.2563
     15 O          16.9782   43.5100    8.5118 O.2     1  UNL1       -0.2720
     16 N          15.4386   42.2423    7.2716 N.am    1  UNL1       -0.2818
     17 H          15.0832   42.0857    6.3670 H       1  UNL1        0.1549
     18 C          16.9743   43.9178    6.1748 C.3     1  UNL1        0.2273
     19 C          15.2576   45.2281    5.7270 C.3     1  UNL1        0.1748
     20 O          15.9258   44.0925    5.2722 O.3     1  UNL1       -0.3417
     21 C           8.5704   43.5614    9.4600 C.3     1  UNL1        0.1217
     22 C           7.9038   43.0408    8.2302 C.ar    1  UNL1       -0.0023
     23 C           8.0557   41.6984    7.8692 C.ar    1  UNL1        0.0012
     24 C           7.4147   41.1925    6.7294 C.ar    1  UNL1        0.0712
     25 C           6.6452   42.0554    5.9356 C.ar    1  UNL1        0.0038
     26 C           6.4930   43.3978    6.2942 C.ar    1  UNL1       -0.0003
     27 C           7.1190   43.8895    7.4424 C.ar    1  UNL1       -0.0026
     28 C           7.6188   39.7642    6.3156 C.3     1  UNL1        0.4186
     29 F           6.3902   39.1785    6.0755 F       1  UNL1       -0.1659
     30 F           8.2671   39.0614    7.3164 F       1  UNL1       -0.1659
     31 F           8.3838   39.6985    5.1638 F       1  UNL1       -0.1659
@<TRIPOS>BOND
     1    19    20    1
     2    18    20    1
     3    18    14    1
     4    14    16   am
     5     9    10   ar
     6    10     6    1
     7    11    12   ar
     8    13     8   ar
     9     1     6    1
    10     1     2    1
    11     2     3    1
    12     3     7    1
    13    21     7    1
    14    21    22    1
    15    23    24   ar
    16    25    26   ar
    17    27    22   ar
    18    28    24    1
    19    28    29    1
    20    28    30    1
    21    28    31    1
    22     4     6   am
    23    16     8    1
    24     7     4   am
    25    14    15    2
    26     8     9   ar
    27    10    11   ar
    28    12    13   ar
    29    22    23   ar
    30    24    25   ar
    31    26    27   ar
    32     4     5    2
    33    16    17    1
@<TRIPOS>MOLECULE
MolPort-006-579-754 ChemDiv-V018-7053 MCULE-7734573866 PubChem-46040718 ZINC000037544477 ZINC37544477
 31 33 0 0 0
SMALL
GASTEIGER

@<TRIPOS>ATOM
      1 C           9.8792   42.0846   10.5813 C.3     1  UNL1        0.1015
      2 C          10.7375   40.8572   10.8374 C.3     1  UNL1        0.0435
      3 C          11.8593   40.7831    9.8061 C.3     1  UNL1        0.0971
      4 C          10.0679   41.5215    8.1693 C.2     1  UNL1        0.3112
      5 O           9.6578   41.6080    6.9794 O.2     1  UNL1       -0.2520
      6 N           9.2509   41.9868    9.2646 N.am    1  UNL1       -0.2430
      7 N          11.3710   40.9681    8.4382 N.am    1  UNL1       -0.2596
      8 C           5.6007   42.6288    9.9450 C.ar    1  UNL1        0.0516
      9 C           6.9193   42.1877   10.0946 C.ar    1  UNL1        0.0296
     10 C           7.8837   42.4271    9.1012 C.ar    1  UNL1        0.0565
     11 C           7.5006   43.1367    7.9506 C.ar    1  UNL1        0.0150
     12 C           6.1866   43.5820    7.7918 C.ar    1  UNL1        0.0026
     13 C           5.2394   43.3276    8.7851 C.ar    1  UNL1        0.0148
     14 C           3.2572   42.0805   10.8276 C.2     1  UNL1        0.2563
     15 O           2.7131   42.1010    9.6924 O.2     1  UNL1       -0.2720
     16 N           4.6570   42.3468   10.9871 N.am    1  UNL1       -0.2818
     17 H           5.0064   42.3347   11.9074 H       1  UNL1        0.1549
     18 C           2.4268   41.7852   12.0261 C.3     1  UNL1        0.2273
     19 C           0.9016   42.7239   13.3136 C.3     1  UNL1        0.1748
     20 O           1.2473   42.5276   11.9776 O.3     1  UNL1       -0.3417
     21 C          12.2651   40.5897    7.3498 C.3     1  UNL1        0.1217
     22 C          13.5582   41.3286    7.4479 C.ar    1  UNL1       -0.0023
     23 C          13.7960   42.4317    6.6219 C.ar    1  UNL1        0.0012
     24 C          14.9971   43.1481    6.7220 C.ar    1  UNL1        0.0712
     25 C          15.9727   42.7268    7.6371 C.ar    1  UNL1        0.0038
     26 C          15.7374   41.6239    8.4629 C.ar    1  UNL1       -0.0003
     27 C          14.5297   40.9272    8.3708 C.ar    1  UNL1       -0.0026
     28 C          15.2715   44.3009    5.8007 C.3     1  UNL1        0.4186
     29 F          14.1295   45.0698    5.6791 F       1  UNL1       -0.1659
     30 F          15.6413   43.8391    4.5493 F       1  UNL1       -0.1659
     31 F          16.2950   45.0874    6.3008 F       1  UNL1       -0.1659
@<TRIPOS>BOND
     1    19    20    1
     2    18    20    1
     3    18    14    1
     4    14    16   am
     5     9    10   ar
     6    10     6    1
     7    11    12   ar
     8    13     8   ar
     9     1     6    1
    10     1     2    1
    11     2     3    1
    12     3     7    1
    13    21     7    1
    14    21    22    1
    15    23    24   ar
    16    25    26   ar
    17    27    22   ar
    18    28    24    1
    19    28    29    1
    20    28    30    1
    21    28    31    1
    22     4     6   am
    23    16     8    1
    24     7     4   am
    25    14    15    2
    26     8     9   ar
    27    10    11   ar
    28    12    13   ar
    29    22    23   ar
    30    24    25   ar
    31    26    27   ar
    32     4     5    2
    33    16    17    1
@<TRIPOS>MOLECULE
MolPort-006-579-754 ChemDiv-V018-7053 MCULE-7734573866 PubChem-46040718 ZINC000037544477 ZINC37544477
 31 33 0 0 0
SMALL
GASTEIGER

@<TRIPOS>ATOM
      1 C           9.9954   40.6920    7.5503 C.3     1  UNL1        0.1015
      2 C          11.0160   41.3356    6.6269 C.3     1  UNL1        0.0435
      3 C          12.3879   40.7063    6.8494 C.3     1  UNL1        0.0971
      4 C          11.7525   40.7869    9.3037 C.2     1  UNL1        0.3112
      5 O          12.1064   40.7778   10.5145 O.2     1  UNL1       -0.2520
      6 N          10.3622   40.9355    8.9447 N.am    1  UNL1       -0.2430
      7 N          12.7423   40.6314    8.2680 N.am    1  UNL1       -0.2596
      8 C           6.9910   41.7335   10.4269 C.ar    1  UNL1        0.0516
      9 C           7.9995   41.4633    9.4966 C.ar    1  UNL1        0.0296
     10 C           9.3238   41.2328    9.9055 C.ar    1  UNL1        0.0565
     11 C           9.6176   41.2644   11.2791 C.ar    1  UNL1        0.0150
     12 C           8.6176   41.5328   12.2163 C.ar    1  UNL1        0.0026
     13 C           7.3090   41.7681   11.7914 C.ar    1  UNL1        0.0148
     14 C           5.1762   43.1601    9.3119 C.2     1  UNL1        0.2563
     15 O           5.9249   44.1564    9.1330 O.2     1  UNL1       -0.2720
     16 N           5.6594   41.9710    9.9509 N.am    1  UNL1       -0.2818
     17 H           5.0097   41.2420   10.0757 H       1  UNL1        0.1549
     18 C           3.7601   43.2251    8.8608 C.3     1  UNL1        0.2273
     19 C           2.6990   41.3597    9.3697 C.3     1  UNL1        0.1748
     20 O           2.9305   42.6561    9.8265 O.3     1  UNL1       -0.3417
     21 C          14.1390   40.3704    8.5976 C.3     1  UNL1        0.1217
     22 C          15.0109   41.4840    8.1203 C.ar    1  UNL1       -0.0023
     23 C          14.5401   42.3705    7.1466 C.ar    1  UNL1        0.0012
     24 C          15.3411   43.4345    6.7081 C.ar    1  UNL1        0.0712
     25 C          16.6335   43.5814    7.2327 C.ar    1  UNL1        0.0038
     26 C          17.1061   42.6958    8.2053 C.ar    1  UNL1       -0.0003
     27 C          16.2943   41.6497    8.6513 C.ar    1  UNL1       -0.0026
     28 C          14.8541   44.3552    5.6274 C.3     1  UNL1        0.4186
     29 F          13.4720   44.3541    5.6156 F       1  UNL1       -0.1659
     30 F          15.3172   43.9349    4.3926 F       1  UNL1       -0.1659
     31 F          15.3033   45.6452    5.8514 F       1  UNL1       -0.1659
@<TRIPOS>BOND
     1    19    20    1
     2    18    20    1
     3    18    14    1
     4    14    16   am
     5     9    10   ar
     6    10     6    1
     7    11    12   ar
     8    13     8   ar
     9     1     6    1
    10     1     2    1
    11     2     3    1
    12     3     7    1
    13    21     7    1
    14    21    22    1
    15    23    24   ar
    16    25    26   ar
    17    27    22   ar
    18    28    24    1
    19    28    29    1
    20    28    30    1
    21    28    31    1
    22     4     6   am
    23    16     8    1
    24     7     4   am
    25    14    15    2
    26     8     9   ar
    27    10    11   ar
    28    12    13   ar
    29    22    23   ar
    30    24    25   ar
    31    26    27   ar
    32     4     5    2
    33    16    17    1
@<TRIPOS>MOLECULE
MolPort-006-579-754 ChemDiv-V018-7053 MCULE-7734573866 PubChem-46040718 ZINC000037544477 ZINC37544477
 31 33 0 0 0
SMALL
GASTEIGER

@<TRIPOS>ATOM
      1 C          10.5802   39.4553    6.5856 C.3     1  UNL1        0.1015
      2 C           9.1989   38.9772    7.0006 C.3     1  UNL1        0.0435
      3 C           8.1882   40.1091    6.8432 C.3     1  UNL1        0.0971
      4 C          10.0411   41.5623    7.7858 C.2     1  UNL1        0.3112
      5 O          10.3953   42.6301    8.3568 O.2     1  UNL1       -0.2520
      6 N          11.0125   40.5461    7.4583 N.am    1  UNL1       -0.2430
      7 N           8.6563   41.3606    7.4420 N.am    1  UNL1       -0.2596
      8 C          14.5946   41.6567    7.8243 C.ar    1  UNL1        0.0516
      9 C          13.2644   41.5905    7.3979 C.ar    1  UNL1        0.0296
     10 C          12.3923   40.6026    7.8856 C.ar    1  UNL1        0.0565
     11 C          12.8802   39.6827    8.8289 C.ar    1  UNL1        0.0150
     12 C          14.2067   39.7405    9.2616 C.ar    1  UNL1        0.0026
     13 C          15.0614   40.7234    8.7598 C.ar    1  UNL1        0.0148
     14 C          15.0213   43.8825    6.6262 C.2     1  UNL1        0.2563
     15 O          13.8017   44.1329    6.4383 O.2     1  UNL1       -0.2720
     16 N          15.4415   42.6802    7.2845 N.am    1  UNL1       -0.2818
     17 H          16.4122   42.5431    7.3755 H       1  UNL1        0.1549
     18 C          16.0441   44.8495    6.1446 C.3     1  UNL1        0.2273
     19 C          17.9285   43.7668    5.7690 C.3     1  UNL1        0.1748
     20 O          17.2800   44.5542    6.7188 O.3     1  UNL1       -0.3417
     21 C           7.6681   42.4109    7.6596 C.3     1  UNL1        0.1217
     22 C           6.8315   42.1085    8.8582 C.ar    1  UNL1       -0.0023
     23 C           5.4371   42.1622    8.7674 C.ar    1  UNL1        0.0012
     24 C           4.6407   41.8566    9.8802 C.ar    1  UNL1        0.0712
     25 C           5.2580   41.5283   11.0959 C.ar    1  UNL1        0.0038
     26 C           6.6516   41.4751   11.1889 C.ar    1  UNL1       -0.0003
     27 C           7.4379   41.7617   10.0701 C.ar    1  UNL1       -0.0026
     28 C           3.1459   41.9632    9.7952 C.3     1  UNL1        0.4186
     29 F           2.8082   43.1325    9.1404 F       1  UNL1       -0.1659
     30 F           2.5919   41.9788   11.0636 F       1  UNL1       -0.1659
     31 F           2.6227   40.8875    9.0985 F       1  UNL1       -0.1659
@<TRIPOS>BOND
     1    19    20    1
     2    18    20    1
     3    18    14    1
     4    14    16   am
     5     9    10   ar
     6    10     6    1
     7    11    12   ar
     8    13     8   ar
     9     1     6    1
    10     1     2    1
    11     2     3    1
    12     3     7    1
    13    21     7    1
    14    21    22    1
    15    23    24   ar
    16    25    26   ar
    17    27    22   ar
    18    28    24    1
    19    28    29    1
    20    28    30    1
    21    28    31    1
    22     4     6   am
    23    16     8    1
    24     7     4   am
    25    14    15    2
    26     8     9   ar
    27    10    11   ar
    28    12    13   ar
    29    22    23   ar
    30    24    25   ar
    31    26    27   ar
    32     4     5    2
    33    16    17    1
@<TRIPOS>MOLECULE
MolPort-006-579-754 ChemDiv-V018-7053 MCULE-7734573866 PubChem-46040718 ZINC000037544477 ZINC37544477
 31 33 0 0 0
SMALL
GASTEIGER

@<TRIPOS>ATOM
      1 C           9.2267   40.6192    5.9643 C.3     1  UNL1        0.1015
      2 C          10.6063   40.6634    5.3292 C.3     1  UNL1        0.0435
      3 C          11.6389   40.0790    6.2883 C.3     1  UNL1        0.0971
      4 C          10.3404   41.3423    8.0636 C.2     1  UNL1        0.3112
      5 O          10.3006   41.8584    9.2141 O.2     1  UNL1       -0.2520
      6 N           9.2085   41.4415    7.1732 N.am    1  UNL1       -0.2430
      7 N          11.5204   40.6327    7.6386 N.am    1  UNL1       -0.2596
      8 C           6.1706   42.8311    8.9165 C.ar    1  UNL1        0.0516
      9 C           7.2881   42.0412    8.6285 C.ar    1  UNL1        0.0296
     10 C           8.0428   42.2464    7.4612 C.ar    1  UNL1        0.0565
     11 C           7.6606   43.2780    6.5872 C.ar    1  UNL1        0.0150
     12 C           6.5467   44.0728    6.8659 C.ar    1  UNL1        0.0026
     13 C           5.8033   43.8491    8.0260 C.ar    1  UNL1        0.0148
     14 C           4.0069   42.4846   10.2469 C.2     1  UNL1        0.2563
     15 O           3.2486   42.6707    9.2591 O.2     1  UNL1       -0.2720
     16 N           5.4323   42.5693   10.1175 N.am    1  UNL1       -0.2818
     17 H           5.9586   42.4337   10.9383 H       1  UNL1        0.1549
     18 C           3.4088   42.1824   11.5751 C.3     1  UNL1        0.2273
     19 C           3.7060   40.0278   11.2087 C.3     1  UNL1        0.1748
     20 O           4.0073   41.0440   12.1140 O.3     1  UNL1       -0.3417
     21 C          12.6381   40.4203    8.5511 C.3     1  UNL1        0.1217
     22 C          13.8076   41.2603    8.1580 C.ar    1  UNL1       -0.0023
     23 C          13.6565   42.2564    7.1880 C.ar    1  UNL1        0.0012
     24 C          14.7421   43.0676    6.8281 C.ar    1  UNL1        0.0712
     25 C          15.9907   42.8479    7.4276 C.ar    1  UNL1        0.0038
     26 C          16.1439   41.8522    8.3965 C.ar    1  UNL1       -0.0003
     27 C          15.0524   41.0611    8.7640 C.ar    1  UNL1       -0.0026
     28 C          14.5912   44.1026    5.7516 C.3     1  UNL1        0.4186
     29 F          13.2487   44.2829    5.4768 F       1  UNL1       -0.1659
     30 F          15.2381   43.6945    4.5980 F       1  UNL1       -0.1659
     31 F          15.1352   45.3083    6.1595 F       1  UNL1       -0.1659
@<TRIPOS>BOND
     1    19    20    1
     2    18    20    1
     3    18    14    1
     4    14    16   am
     5     9    10   ar
     6    10     6    1
     7    11    12   ar
     8    13     8   ar
     9     1     6    1
    10     1     2    1
    11     2     3    1
    12     3     7    1
    13    21     7    1
    14    21    22    1
    15    23    24   ar
    16    25    26   ar
    17    27    22   ar
    18    28    24    1
    19    28    29    1
    20    28    30    1
    21    28    31    1
    22     4     6   am
    23    16     8    1
    24     7     4   am
    25    14    15    2
    26     8     9   ar
    27    10    11   ar
    28    12    13   ar
    29    22    23   ar
    30    24    25   ar
    31    26    27   ar
    32     4     5    2
    33    16    17    1
@<TRIPOS>MOLECULE
MolPort-006-579-754 ChemDiv-V018-7053 MCULE-7734573866 PubChem-46040718 ZINC000037544477 ZINC37544477
 31 33 0 0 0
SMALL
GASTEIGER

@<TRIPOS>ATOM
      1 C          13.2995   36.7685    9.5780 C.3     1  UNL1        0.1015
      2 C          11.9215   36.4998   10.1590 C.3     1  UNL1        0.0435
      3 C          10.8776   37.3417    9.4316 C.3     1  UNL1        0.0971
      4 C          12.6404   39.1630    9.5272 C.2     1  UNL1        0.3112
      5 O          12.9344   40.3888    9.4784 O.2     1  UNL1       -0.2520
      6 N          13.6593   38.1715    9.7781 N.am    1  UNL1       -0.2430
      7 N          11.2778   38.7453    9.3146 N.am    1  UNL1       -0.2596
      8 C          16.9578   39.9828    9.9721 C.ar    1  UNL1        0.0516
      9 C          15.6485   39.6482    9.6122 C.ar    1  UNL1        0.0296
     10 C          15.0190   38.5067   10.1364 C.ar    1  UNL1        0.0565
     11 C          15.7288   37.7076   11.0484 C.ar    1  UNL1        0.0150
     12 C          17.0365   38.0334   11.4149 C.ar    1  UNL1        0.0026
     13 C          17.6494   39.1663   10.8773 C.ar    1  UNL1        0.0148
     14 C          16.9183   42.0990    8.5258 C.2     1  UNL1        0.2563
     15 O          15.7241   41.9482    8.1566 O.2     1  UNL1       -0.2720
     16 N          17.5530   41.1539    9.3973 N.am    1  UNL1       -0.2818
     17 H          18.4951   41.3269    9.6247 H       1  UNL1        0.1549
     18 C          17.6866   43.2757    8.0377 C.3     1  UNL1        0.2273
     19 C          16.8163   44.5294    6.4453 C.3     1  UNL1        0.1748
     20 O          16.8221   44.3496    7.8276 O.3     1  UNL1       -0.3417
     21 C          10.2451   39.7091    8.9516 C.3     1  UNL1        0.1217
     22 C          10.4125   40.1544    7.5369 C.ar    1  UNL1       -0.0023
     23 C          10.2484   39.2384    6.4930 C.ar    1  UNL1        0.0012
     24 C          10.3795   39.6506    5.1592 C.ar    1  UNL1        0.0712
     25 C          10.7098   40.9854    4.8833 C.ar    1  UNL1        0.0038
     26 C          10.8753   41.9022    5.9253 C.ar    1  UNL1       -0.0003
     27 C          10.7235   41.4879    7.2511 C.ar    1  UNL1       -0.0026
     28 C          10.2524   38.6562    4.0422 C.3     1  UNL1        0.4186
     29 F           9.6288   37.5167    4.5143 F       1  UNL1       -0.1659
     30 F          11.5030   38.3182    3.5545 F       1  UNL1       -0.1659
     31 F           9.5029   39.1854    3.0057 F       1  UNL1       -0.1659
@<TRIPOS>BOND
     1    19    20    1
     2    18    20    1
     3    18    14    1
     4    14    16   am
     5     9    10   ar
     6    10     6    1
     7    11    12   ar
     8    13     8   ar
     9     1     6    1
    10     1     2    1
    11     2     3    1
    12     3     7    1
    13    21     7    1
    14    21    22    1
    15    23    24   ar
    16    25    26   ar
    17    27    22   ar
    18    28    24    1
    19    28    29    1
    20    28    30    1
    21    28    31    1
    22     4     6   am
    23    16     8    1
    24     7     4   am
    25    14    15    2
    26     8     9   ar
    27    10    11   ar
    28    12    13   ar
    29    22    23   ar
    30    24    25   ar
    31    26    27   ar
    32     4     5    2
    33    16    17    1
@<TRIPOS>MOLECULE
MolPort-006-579-754 ChemDiv-V018-7053 MCULE-7734573866 PubChem-46040718 ZINC000037544477 ZINC37544477
 31 33 0 0 0
SMALL
GASTEIGER

@<TRIPOS>ATOM
      1 C           9.8168   39.6111    8.0980 C.3     1  UNL1        0.1015
      2 C           9.7355   39.8076    6.5935 C.3     1  UNL1        0.0435
      3 C          11.0386   40.4098    6.0769 C.3     1  UNL1        0.0971
      4 C          10.9222   41.8344    8.1722 C.2     1  UNL1        0.3112
      5 O          11.2731   42.8733    8.7960 O.2     1  UNL1       -0.2520
      6 N           9.9889   40.9033    8.7603 N.am    1  UNL1       -0.2430
      7 N          11.4696   41.5648    6.8668 N.am    1  UNL1       -0.2596
      8 C           7.2552   41.7799   11.2010 C.ar    1  UNL1        0.0516
      9 C           7.9383   41.5486   10.0029 C.ar    1  UNL1        0.0296
     10 C           9.2885   41.1599    9.9985 C.ar    1  UNL1        0.0565
     11 C           9.9428   40.9917   11.2305 C.ar    1  UNL1        0.0150
     12 C           9.2694   41.2196   12.4326 C.ar    1  UNL1        0.0026
     13 C           7.9305   41.6138   12.4178 C.ar    1  UNL1        0.0148
     14 C           4.8895   41.7268   10.2148 C.2     1  UNL1        0.2563
     15 O           5.1758   40.9029    9.3068 O.2     1  UNL1       -0.2720
     16 N           5.8808   42.1847   11.1439 N.am    1  UNL1       -0.2818
     17 H           5.5874   42.8456   11.8121 H       1  UNL1        0.1549
     18 C           3.4975   42.2420   10.3159 C.3     1  UNL1        0.2273
     19 C           3.9613   43.7838    8.8085 C.3     1  UNL1        0.1748
     20 O           3.0852   42.7336    9.0779 O.3     1  UNL1       -0.3417
     21 C          12.4956   42.4264    6.2904 C.3     1  UNL1        0.1217
     22 C          13.7981   42.2405    6.9951 C.ar    1  UNL1       -0.0023
     23 C          14.8547   43.1241    6.7532 C.ar    1  UNL1        0.0012
     24 C          16.0748   42.9737    7.4274 C.ar    1  UNL1        0.0712
     25 C          16.2363   41.9069    8.3234 C.ar    1  UNL1        0.0038
     26 C          15.1818   41.0221    8.5657 C.ar    1  UNL1       -0.0003
     27 C          13.9624   41.1905    7.9046 C.ar    1  UNL1       -0.0026
     28 C          17.2239   43.8924    7.1299 C.3     1  UNL1        0.4186
     29 F          16.7397   45.0685    6.5892 F       1  UNL1       -0.1659
     30 F          18.0903   43.3020    6.2262 F       1  UNL1       -0.1659
     31 F          17.9246   44.1820    8.2881 F       1  UNL1       -0.1659
@<TRIPOS>BOND
     1    19    20    1
     2    18    20    1
     3    18    14    1
     4    14    16   am
     5     9    10   ar
     6    10     6    1
     7    11    12   ar
     8    13     8   ar
     9     1     6    1
    10     1     2    1
    11     2     3    1
    12     3     7    1
    13    21     7    1
    14    21    22    1
    15    23    24   ar
    16    25    26   ar
    17    27    22   ar
    18    28    24    1
    19    28    29    1
    20    28    30    1
    21    28    31    1
    22     4     6   am
    23    16     8    1
    24     7     4   am
    25    14    15    2
    26     8     9   ar
    27    10    11   ar
    28    12    13   ar
    29    22    23   ar
    30    24    25   ar
    31    26    27   ar
    32     4     5    2
    33    16    17    1
@<TRIPOS>MOLECULE
MolPort-006-579-754 ChemDiv-V018-7053 MCULE-7734573866 PubChem-46040718 ZINC000037544477 ZINC37544477
 31 33 0 0 0
SMALL
GASTEIGER

@<TRIPOS>ATOM
      1 C          13.1113   36.9908    9.6572 C.3     1  UNL1        0.1015
      2 C          11.6671   37.0182   10.1286 C.3     1  UNL1        0.0435
      3 C          10.7846   37.6605    9.0626 C.3     1  UNL1        0.0971
      4 C          12.7123   39.2880    8.8003 C.2     1  UNL1        0.3112
      5 O          13.1355   40.4117    8.4133 O.2     1  UNL1       -0.2520
      6 N          13.5963   38.3559    9.4588 N.am    1  UNL1       -0.2430
      7 N          11.3375   38.9232    8.5691 N.am    1  UNL1       -0.2596
      8 C          16.8655   40.1988    9.7976 C.ar    1  UNL1        0.0516
      9 C          15.5655   39.8673    9.4029 C.ar    1  UNL1        0.0296
     10 C          14.9468   38.6887    9.8526 C.ar    1  UNL1        0.0565
     11 C          15.6577   37.8481   10.7256 C.ar    1  UNL1        0.0150
     12 C          16.9562   38.1703   11.1262 C.ar    1  UNL1        0.0026
     13 C          17.5586   39.3410   10.6626 C.ar    1  UNL1        0.0148
     14 C          16.8528   42.3360    8.3821 C.2     1  UNL1        0.2563
     15 O          15.7095   42.1302    7.8965 O.2     1  UNL1       -0.2720
     16 N          17.4500   41.4094    9.2988 N.am    1  UNL1       -0.2818
     17 H          18.3552   41.6268    9.6190 H       1  UNL1        0.1549
     18 C          17.6007   43.5597    7.9864 C.3     1  UNL1        0.2273
     19 C          17.3665   44.0169    5.8415 C.3     1  UNL1        0.1748
     20 O          18.2035   43.3633    6.7444 O.3     1  UNL1       -0.3417
     21 C          10.4468   39.7949    7.8114 C.3     1  UNL1        0.1217
     22 C           9.5324   40.5392    8.7267 C.ar    1  UNL1       -0.0023
     23 C           8.2119   40.7907    8.3408 C.ar    1  UNL1        0.0012
     24 C           7.3370   41.4678    9.2022 C.ar    1  UNL1        0.0712
     25 C           7.8094   41.9199   10.4428 C.ar    1  UNL1        0.0038
     26 C           9.1291   41.6704   10.8299 C.ar    1  UNL1       -0.0003
     27 C           9.9892   40.9777    9.9740 C.ar    1  UNL1       -0.0026
     28 C           5.9351   41.7808    8.7667 C.3     1  UNL1        0.4186
     29 F           5.3540   40.6404    8.2449 F       1  UNL1       -0.1659
     30 F           5.9418   42.7690    7.7975 F       1  UNL1       -0.1659
     31 F           5.1814   42.2214    9.8408 F       1  UNL1       -0.1659
@<TRIPOS>BOND
     1    19    20    1
     2    18    20    1
     3    18    14    1
     4    14    16   am
     5     9    10   ar
     6    10     6    1
     7    11    12   ar
     8    13     8   ar
     9     1     6    1
    10     1     2    1
    11     2     3    1
    12     3     7    1
    13    21     7    1
    14    21    22    1
    15    23    24   ar
    16    25    26   ar
    17    27    22   ar
    18    28    24    1
    19    28    29    1
    20    28    30    1
    21    28    31    1
    22     4     6   am
    23    16     8    1
    24     7     4   am
    25    14    15    2
    26     8     9   ar
    27    10    11   ar
    28    12    13   ar
    29    22    23   ar
    30    24    25   ar
    31    26    27   ar
    32     4     5    2
    33    16    17    1
