@<TRIPOS>MOLECULE
Molport-020-292-510 MCULE-9265781753
 35 39 0 0 0
SMALL
GASTEIGER

@<TRIPOS>ATOM
      1 C          12.2382   41.3033    7.4814 C.2     1  UNL1        0.2659
      2 C          11.4169   39.4507    8.9603 C.3     1  UNL1        0.0938
      3 C          11.8654   39.0162   10.3533 C.3     1  UNL1        0.0220
      4 C          13.1417   38.1834   10.2610 C.3     1  UNL1        0.0094
      5 C          14.2419   38.9899    9.5733 C.3     1  UNL1        0.0602
      6 C          13.7894   39.4231    8.1800 C.3     1  UNL1        0.0996
      7 N          12.5132   40.1299    8.2715 N.am    1  UNL1       -0.2745
      8 O          11.0445   41.6932    7.3548 O.2     1  UNL1       -0.2683
      9 C          13.3164   42.0819    6.8242 C.ar    1  UNL1        0.1244
     10 C          14.6004   42.2837    7.3033 C.ar    1  UNL1        0.0145
     11 C          15.1465   41.9037    8.6514 C.3     1  UNL1        0.0293
     12 C          16.6608   41.7307    8.6100 C.3     1  UNL1        0.0048
     13 C          17.4110   43.0641    8.7193 C.3     1  UNL1        0.0007
     14 C          16.9184   44.1668    7.7731 C.3     1  UNL1        0.0064
     15 C          16.5907   43.6347    6.3816 C.3     1  UNL1        0.0473
     16 C          15.1956   43.0923    6.3504 C.ar    1  UNL1        0.0759
     17 N          14.3252   43.3290    5.3521 N.ar    1  UNL1       -0.1773
     18 N          13.1867   42.7125    5.6375 N.ar    1  UNL1       -0.2720
     19 H          12.3783   42.7142    5.0755 H       1  UNL1        0.1891
     20 C          15.5064   38.2007    9.4909 C.ar    1  UNL1        0.0611
     21 C          15.4860   36.9312    8.9083 C.ar    1  UNL1        0.0294
     22 C          16.6622   36.1800    8.8417 C.ar    1  UNL1        0.0517
     23 C          17.8450   36.7153    9.3714 C.ar    1  UNL1        0.0294
     24 C          17.8300   37.9872    9.9465 C.ar    1  UNL1        0.0602
     25 C          19.0803   38.5623   10.5092 C.3     1  UNL1        0.0521
     26 N          16.6717   38.6983    9.9951 N.ar    1  UNL1       -0.2538
     27 N          16.6142   34.8781    8.2400 N.pl3   1  UNL1       -0.2981
     28 H          16.7531   34.1134    8.8442 H       1  UNL1        0.1536
     29 C          16.3867   34.5626    6.8566 C.ar    1  UNL1        0.1281
     30 C          15.8150   33.3270    6.5081 C.ar    1  UNL1        0.0099
     31 C          15.5926   33.0309    5.1611 C.ar    1  UNL1        0.0001
     32 C          15.9366   33.9573    4.1759 C.ar    1  UNL1        0.0204
     33 C          16.5018   35.1754    4.5560 C.ar    1  UNL1        0.1003
     34 C          15.4418   32.3234    7.5452 C.3     1  UNL1        0.0340
     35 N          16.7117   35.4486    5.8723 N.ar    1  UNL1       -0.2294
@<TRIPOS>BOND
     1     9     1    1
     2    11    10    1
     3    11    12    1
     4    12    13    1
     5    13    14    1
     6    14    15    1
     7    15    16    1
     8    16    10   ar
     9     1     7   am
    10     2     7    1
    11     2     3    1
    12     3     4    1
    13     4     5    1
    14     5     6    1
    15     5    20    1
    16     6     7    1
    17    20    26   ar
    18    21    22   ar
    19    22    27    1
    20    23    24   ar
    21    25    24    1
    22    29    35   ar
    23    30    31   ar
    24    32    33   ar
    25    34    30    1
    26    18    17   ar
    27    18     9   ar
    28    27    29    1
    29     9    10   ar
    30    16    17   ar
    31     1     8    2
    32    20    21   ar
    33    22    23   ar
    34    24    26   ar
    35    29    30   ar
    36    31    32   ar
    37    33    35   ar
    38    18    19    1
    39    27    28    1
@<TRIPOS>MOLECULE
Molport-020-292-510 MCULE-9265781753
 35 39 0 0 0
SMALL
GASTEIGER

@<TRIPOS>ATOM
      1 C          16.4863   36.6737    9.5747 C.2     1  UNL1        0.2659
      2 C          15.8664   38.1705   11.4901 C.3     1  UNL1        0.0938
      3 C          14.5159   38.4324   12.1519 C.3     1  UNL1        0.0220
      4 C          13.6965   39.4083   11.3110 C.3     1  UNL1        0.0094
      5 C          13.5014   38.8474    9.9035 C.3     1  UNL1        0.0602
      6 C          14.8547   38.5865    9.2447 C.3     1  UNL1        0.0996
      7 N          15.6697   37.7343   10.1086 N.am    1  UNL1       -0.2745
      8 O          17.3952   36.1757   10.2950 O.2     1  UNL1       -0.2683
      9 C          16.2822   36.1330    8.2085 C.ar    1  UNL1        0.1244
     10 C          17.2686   35.8115    7.2905 C.ar    1  UNL1        0.0145
     11 C          18.7440   36.0787    7.3985 C.3     1  UNL1        0.0293
     12 C          19.5500   35.1034    6.5477 C.3     1  UNL1        0.0048
     13 C          19.6165   35.5210    5.0732 C.3     1  UNL1        0.0007
     14 C          18.2670   35.8803    4.4378 C.3     1  UNL1        0.0064
     15 C          17.1508   34.9353    4.8709 C.3     1  UNL1        0.0473
     16 C          16.5687   35.3853    6.1748 C.ar    1  UNL1        0.0759
     17 N          15.2480   35.4232    6.4289 N.ar    1  UNL1       -0.1773
     18 N          15.0744   35.8727    7.6640 N.ar    1  UNL1       -0.2720
     19 H          14.2062   35.9965    8.1114 H       1  UNL1        0.1891
     20 C          12.6843   39.7777    9.0696 C.ar    1  UNL1        0.0611
     21 C          13.2799   40.4335    7.9894 C.ar    1  UNL1        0.0294
     22 C          12.5257   41.3178    7.2140 C.ar    1  UNL1        0.0517
     23 C          11.1801   41.5367    7.5421 C.ar    1  UNL1        0.0294
     24 C          10.6164   40.8647    8.6281 C.ar    1  UNL1        0.0602
     25 C           9.1901   41.0905    8.9817 C.3     1  UNL1        0.0521
     26 N          11.3725   40.0067    9.3642 N.ar    1  UNL1       -0.2538
     27 N          13.1614   41.9802    6.1111 N.pl3   1  UNL1       -0.2981
     28 H          12.9478   41.6356    5.2139 H       1  UNL1        0.1536
     29 C          14.0741   43.0888    6.1659 C.ar    1  UNL1        0.1281
     30 C          15.2164   43.0119    6.9808 C.ar    1  UNL1        0.0099
     31 C          16.1009   44.0923    7.0240 C.ar    1  UNL1        0.0001
     32 C          15.8473   45.2339    6.2626 C.ar    1  UNL1        0.0204
     33 C          14.7041   45.2776    5.4632 C.ar    1  UNL1        0.1003
     34 C          15.5046   41.8021    7.8027 C.3     1  UNL1        0.0340
     35 N          13.8528   44.2167    5.4321 N.ar    1  UNL1       -0.2294
@<TRIPOS>BOND
     1     9     1    1
     2    11    10    1
     3    11    12    1
     4    12    13    1
     5    13    14    1
     6    14    15    1
     7    15    16    1
     8    16    10   ar
     9     1     7   am
    10     2     7    1
    11     2     3    1
    12     3     4    1
    13     4     5    1
    14     5     6    1
    15     5    20    1
    16     6     7    1
    17    20    26   ar
    18    21    22   ar
    19    22    27    1
    20    23    24   ar
    21    25    24    1
    22    29    35   ar
    23    30    31   ar
    24    32    33   ar
    25    34    30    1
    26    18    17   ar
    27    18     9   ar
    28    27    29    1
    29     9    10   ar
    30    16    17   ar
    31     1     8    2
    32    20    21   ar
    33    22    23   ar
    34    24    26   ar
    35    29    30   ar
    36    31    32   ar
    37    33    35   ar
    38    18    19    1
    39    27    28    1
@<TRIPOS>MOLECULE
Molport-020-292-510 MCULE-9265781753
 35 39 0 0 0
SMALL
GASTEIGER

@<TRIPOS>ATOM
      1 C           6.7813   41.2329    8.8883 C.2     1  UNL1        0.2659
      2 C           7.6484   42.3988   10.9334 C.3     1  UNL1        0.0938
      3 C           8.7106   43.4847   11.0848 C.3     1  UNL1        0.0220
      4 C          10.1067   42.8703   11.0182 C.3     1  UNL1        0.0094
      5 C          10.2870   42.1278    9.6954 C.3     1  UNL1        0.0602
      6 C           9.2224   41.0424    9.5474 C.3     1  UNL1        0.0996
      7 N           7.8931   41.6265    9.7163 N.am    1  UNL1       -0.2745
      8 O           5.6085   41.5171    9.2582 O.2     1  UNL1       -0.2683
      9 C           6.9702   40.5182    7.6022 C.ar    1  UNL1        0.1244
     10 C           8.1774   40.1637    7.0227 C.ar    1  UNL1        0.0145
     11 C           9.5588   40.5520    7.4709 C.3     1  UNL1        0.0293
     12 C          10.6012   39.5448    6.9977 C.3     1  UNL1        0.0048
     13 C          11.0402   39.7860    5.5479 C.3     1  UNL1        0.0007
     14 C           9.8949   39.9641    4.5427 C.3     1  UNL1        0.0064
     15 C           8.7432   38.9967    4.7969 C.3     1  UNL1        0.0473
     16 C           7.8174   39.5552    5.8326 C.ar    1  UNL1        0.0759
     17 N           6.4763   39.5241    5.7292 N.ar    1  UNL1       -0.1773
     18 N           5.9624   40.1044    6.8047 N.ar    1  UNL1       -0.2720
     19 H           5.0021   40.2154    6.9915 H       1  UNL1        0.1891
     20 C          11.6543   41.5360    9.6006 C.ar    1  UNL1        0.0611
     21 C          12.4854   41.8957    8.5370 C.ar    1  UNL1        0.0294
     22 C          13.7604   41.3339    8.4329 C.ar    1  UNL1        0.0517
     23 C          14.1799   40.4088    9.3995 C.ar    1  UNL1        0.0294
     24 C          13.3240   40.0717   10.4495 C.ar    1  UNL1        0.0602
     25 C          13.7618   39.0926   11.4791 C.3     1  UNL1        0.0521
     26 N          12.0892   40.6362   10.5287 N.ar    1  UNL1       -0.2538
     27 N          14.5940   41.7186    7.3299 N.pl3   1  UNL1       -0.2981
     28 H          14.3410   41.3626    6.4476 H       1  UNL1        0.1536
     29 C          15.7557   42.5638    7.3656 C.ar    1  UNL1        0.1281
     30 C          15.8911   43.6027    6.4290 C.ar    1  UNL1        0.0099
     31 C          17.0212   44.4227    6.4744 C.ar    1  UNL1        0.0001
     32 C          18.0024   44.2074    7.4430 C.ar    1  UNL1        0.0204
     33 C          17.8367   43.1674    8.3588 C.ar    1  UNL1        0.1003
     34 C          14.8551   43.8482    5.3857 C.3     1  UNL1        0.0340
     35 N          16.7300   42.3779    8.3013 N.ar    1  UNL1       -0.2294
@<TRIPOS>BOND
     1     9     1    1
     2    11    10    1
     3    11    12    1
     4    12    13    1
     5    13    14    1
     6    14    15    1
     7    15    16    1
     8    16    10   ar
     9     1     7   am
    10     2     7    1
    11     2     3    1
    12     3     4    1
    13     4     5    1
    14     5     6    1
    15     5    20    1
    16     6     7    1
    17    20    26   ar
    18    21    22   ar
    19    22    27    1
    20    23    24   ar
    21    25    24    1
    22    29    35   ar
    23    30    31   ar
    24    32    33   ar
    25    34    30    1
    26    18    17   ar
    27    18     9   ar
    28    27    29    1
    29     9    10   ar
    30    16    17   ar
    31     1     8    2
    32    20    21   ar
    33    22    23   ar
    34    24    26   ar
    35    29    30   ar
    36    31    32   ar
    37    33    35   ar
    38    18    19    1
    39    27    28    1
@<TRIPOS>MOLECULE
Molport-020-292-510 MCULE-9265781753
 35 39 0 0 0
SMALL
GASTEIGER

@<TRIPOS>ATOM
      1 C          13.7906   40.4673    8.8661 C.2     1  UNL1        0.2659
      2 C          12.1406   38.5897    9.0799 C.3     1  UNL1        0.0938
      3 C          12.0947   37.4106   10.0484 C.3     1  UNL1        0.0220
      4 C          13.0617   36.3188    9.5969 C.3     1  UNL1        0.0094
      5 C          14.4791   36.8817    9.5080 C.3     1  UNL1        0.0602
      6 C          14.5209   38.0613    8.5383 C.3     1  UNL1        0.0996
      7 N          13.5182   39.0533    8.9219 N.am    1  UNL1       -0.2745
      8 O          12.8263   41.2809    8.9011 O.2     1  UNL1       -0.2683
      9 C          15.1722   41.0016    8.7868 C.ar    1  UNL1        0.1244
     10 C          15.6030   42.0692    8.0164 C.ar    1  UNL1        0.0145
     11 C          14.8223   42.8240    6.9768 C.3     1  UNL1        0.0293
     12 C          15.3700   44.2338    6.7841 C.3     1  UNL1        0.0048
     13 C          16.5863   44.2726    5.8504 C.3     1  UNL1        0.0007
     14 C          17.6862   43.2527    6.1727 C.3     1  UNL1        0.0064
     15 C          17.9312   43.1167    7.6721 C.3     1  UNL1        0.0473
     16 C          16.9621   42.1437    8.2685 C.ar    1  UNL1        0.0759
     17 N          17.3086   41.1961    9.1586 N.ar    1  UNL1       -0.1773
     18 N          16.2220   40.5061    9.4763 N.ar    1  UNL1       -0.2720
     19 H          16.1864   39.7548   10.1115 H       1  UNL1        0.1891
     20 C          15.4452   35.8242    9.0875 C.ar    1  UNL1        0.0611
     21 C          14.9865   34.7301    8.3498 C.ar    1  UNL1        0.0294
     22 C          15.8818   33.7285    7.9661 C.ar    1  UNL1        0.0517
     23 C          17.2292   33.8379    8.3382 C.ar    1  UNL1        0.0294
     24 C          17.6540   34.9447    9.0754 C.ar    1  UNL1        0.0602
     25 C          19.0813   35.0687    9.4727 C.3     1  UNL1        0.0521
     26 N          16.7619   35.9070    9.4328 N.ar    1  UNL1       -0.2538
     27 N          15.3852   32.6141    7.2104 N.pl3   1  UNL1       -0.2981
     28 H          14.9617   31.8911    7.7273 H       1  UNL1        0.1536
     29 C          15.4352   32.4326    5.7858 C.ar    1  UNL1        0.1281
     30 C          14.3712   31.7937    5.1265 C.ar    1  UNL1        0.0099
     31 C          14.4259   31.6261    3.7407 C.ar    1  UNL1        0.0001
     32 C          15.5289   32.0911    3.0236 C.ar    1  UNL1        0.0204
     33 C          16.5683   32.7219    3.7088 C.ar    1  UNL1        0.1003
     34 C          13.1848   31.2886    5.8745 C.3     1  UNL1        0.0340
     35 N          16.4996   32.8776    5.0587 N.ar    1  UNL1       -0.2294
@<TRIPOS>BOND
     1     9     1    1
     2    11    10    1
     3    11    12    1
     4    12    13    1
     5    13    14    1
     6    14    15    1
     7    15    16    1
     8    16    10   ar
     9     1     7   am
    10     2     7    1
    11     2     3    1
    12     3     4    1
    13     4     5    1
    14     5     6    1
    15     5    20    1
    16     6     7    1
    17    20    26   ar
    18    21    22   ar
    19    22    27    1
    20    23    24   ar
    21    25    24    1
    22    29    35   ar
    23    30    31   ar
    24    32    33   ar
    25    34    30    1
    26    18    17   ar
    27    18     9   ar
    28    27    29    1
    29     9    10   ar
    30    16    17   ar
    31     1     8    2
    32    20    21   ar
    33    22    23   ar
    34    24    26   ar
    35    29    30   ar
    36    31    32   ar
    37    33    35   ar
    38    18    19    1
    39    27    28    1
@<TRIPOS>MOLECULE
Molport-020-292-510 MCULE-9265781753
 35 39 0 0 0
SMALL
GASTEIGER

@<TRIPOS>ATOM
      1 C           7.2454   41.4389    8.3902 C.2     1  UNL1        0.2659
      2 C           8.0408   42.8692   10.2916 C.3     1  UNL1        0.0938
      3 C           9.2039   43.8543   10.3771 C.3     1  UNL1        0.0220
      4 C          10.5176   43.1034   10.5806 C.3     1  UNL1        0.0094
      5 C          10.7369   42.1166    9.4353 C.3     1  UNL1        0.0602
      6 C           9.5712   41.1329    9.3527 C.3     1  UNL1        0.0996
      7 N           8.3100   41.8663    9.2623 N.am    1  UNL1       -0.2745
      8 O           6.0839   41.9004    8.5662 O.2     1  UNL1       -0.2683
      9 C           7.4729   40.4851    7.2770 C.ar    1  UNL1        0.1244
     10 C           8.6210   40.3670    6.5109 C.ar    1  UNL1        0.0145
     11 C           9.8257   41.2661    6.5194 C.3     1  UNL1        0.0293
     12 C          11.0706   40.5334    6.0314 C.3     1  UNL1        0.0048
     13 C          11.1630   40.4802    4.5013 C.3     1  UNL1        0.0007
     14 C           9.8873   40.0123    3.7887 C.3     1  UNL1        0.0064
     15 C           9.2099   38.8526    4.5119 C.3     1  UNL1        0.0473
     16 C           8.3199   39.3699    5.5990 C.ar    1  UNL1        0.0759
     17 N           7.0791   38.9048    5.8321 N.ar    1  UNL1       -0.1773
     18 N           6.5670   39.5784    6.8527 N.ar    1  UNL1       -0.2720
     19 H           5.6718   39.4399    7.2384 H       1  UNL1        0.1891
     20 C          12.0276   41.3856    9.6040 C.ar    1  UNL1        0.0611
     21 C          13.0995   41.6818    8.7586 C.ar    1  UNL1        0.0294
     22 C          14.3055   40.9907    8.9002 C.ar    1  UNL1        0.0517
     23 C          14.4139   40.0020    9.8885 C.ar    1  UNL1        0.0294
     24 C          13.3231   39.7313   10.7165 C.ar    1  UNL1        0.0602
     25 C          13.4304   38.6854   11.7677 C.3     1  UNL1        0.0521
     26 N          12.1618   40.4215   10.5593 N.ar    1  UNL1       -0.2538
     27 N          15.3907   41.3125    8.0181 N.pl3   1  UNL1       -0.2981
     28 H          16.0769   40.6166    7.8995 H       1  UNL1        0.1536
     29 C          15.5908   42.5341    7.2881 C.ar    1  UNL1        0.1281
     30 C          16.6467   43.3919    7.6405 C.ar    1  UNL1        0.0099
     31 C          16.8369   44.5748    6.9220 C.ar    1  UNL1        0.0001
     32 C          15.9836   44.8957    5.8655 C.ar    1  UNL1        0.0204
     33 C          14.9452   44.0214    5.5410 C.ar    1  UNL1        0.1003
     34 C          17.5682   43.0681    8.7665 C.3     1  UNL1        0.0340
     35 N          14.7737   42.8731    6.2505 N.ar    1  UNL1       -0.2294
@<TRIPOS>BOND
     1     9     1    1
     2    11    10    1
     3    11    12    1
     4    12    13    1
     5    13    14    1
     6    14    15    1
     7    15    16    1
     8    16    10   ar
     9     1     7   am
    10     2     7    1
    11     2     3    1
    12     3     4    1
    13     4     5    1
    14     5     6    1
    15     5    20    1
    16     6     7    1
    17    20    26   ar
    18    21    22   ar
    19    22    27    1
    20    23    24   ar
    21    25    24    1
    22    29    35   ar
    23    30    31   ar
    24    32    33   ar
    25    34    30    1
    26    18    17   ar
    27    18     9   ar
    28    27    29    1
    29     9    10   ar
    30    16    17   ar
    31     1     8    2
    32    20    21   ar
    33    22    23   ar
    34    24    26   ar
    35    29    30   ar
    36    31    32   ar
    37    33    35   ar
    38    18    19    1
    39    27    28    1
@<TRIPOS>MOLECULE
Molport-020-292-510 MCULE-9265781753
 35 39 0 0 0
SMALL
GASTEIGER

@<TRIPOS>ATOM
      1 C          16.6457   37.6141   10.9598 C.2     1  UNL1        0.2659
      2 C          14.7104   38.8167   12.0096 C.3     1  UNL1        0.0938
      3 C          13.2754   39.0069   11.5247 C.3     1  UNL1        0.0220
      4 C          13.2144   40.1185   10.4798 C.3     1  UNL1        0.0094
      5 C          14.1341   39.7828    9.3072 C.3     1  UNL1        0.0602
      6 C          15.5687   39.5930    9.7963 C.3     1  UNL1        0.0996
      7 N          15.5988   38.6004   10.8688 N.am    1  UNL1       -0.2745
      8 O          16.8104   36.9910   12.0450 O.2     1  UNL1       -0.2683
      9 C          17.5278   37.2924    9.8114 C.ar    1  UNL1        0.1244
     10 C          17.2661   36.3876    8.7957 C.ar    1  UNL1        0.0145
     11 C          16.1202   35.4189    8.7032 C.3     1  UNL1        0.0293
     12 C          15.8268   35.0404    7.2557 C.3     1  UNL1        0.0048
     13 C          16.7568   33.9382    6.7331 C.3     1  UNL1        0.0007
     14 C          18.2512   34.1731    6.9887 C.3     1  UNL1        0.0064
     15 C          18.6574   35.6263    6.7657 C.3     1  UNL1        0.0473
     16 C          18.3990   36.4312    8.0014 C.ar    1  UNL1        0.0759
     17 N          19.2658   37.3310    8.5006 N.ar    1  UNL1       -0.1773
     18 N          18.7355   37.8565    9.5962 N.ar    1  UNL1       -0.2720
     19 H          19.1541   38.5458   10.1608 H       1  UNL1        0.1891
     20 C          14.0739   40.8482    8.2632 C.ar    1  UNL1        0.0611
     21 C          12.9267   40.9731    7.4757 C.ar    1  UNL1        0.0294
     22 C          12.8692   41.9576    6.4860 C.ar    1  UNL1        0.0517
     23 C          13.9736   42.8005    6.2964 C.ar    1  UNL1        0.0294
     24 C          15.1041   42.6484    7.1010 C.ar    1  UNL1        0.0602
     25 C          16.2787   43.5389    6.9070 C.3     1  UNL1        0.0521
     26 N          15.1322   41.6839    8.0595 N.ar    1  UNL1       -0.2538
     27 N          11.6802   42.0640    5.6895 N.pl3   1  UNL1       -0.2981
     28 H          11.7486   42.6141    4.8759 H       1  UNL1        0.1536
     29 C          10.4013   41.4598    5.9433 C.ar    1  UNL1        0.1281
     30 C           9.9778   40.3703    5.1631 C.ar    1  UNL1        0.0099
     31 C           8.7353   39.7858    5.4202 C.ar    1  UNL1        0.0001
     32 C           7.9273   40.2832    6.4434 C.ar    1  UNL1        0.0204
     33 C           8.3782   41.3658    7.2000 C.ar    1  UNL1        0.1003
     34 C          10.8253   39.8252    4.0646 C.3     1  UNL1        0.0340
     35 N           9.5910   41.9236    6.9371 N.ar    1  UNL1       -0.2294
@<TRIPOS>BOND
     1     9     1    1
     2    11    10    1
     3    11    12    1
     4    12    13    1
     5    13    14    1
     6    14    15    1
     7    15    16    1
     8    16    10   ar
     9     1     7   am
    10     2     7    1
    11     2     3    1
    12     3     4    1
    13     4     5    1
    14     5     6    1
    15     5    20    1
    16     6     7    1
    17    20    26   ar
    18    21    22   ar
    19    22    27    1
    20    23    24   ar
    21    25    24    1
    22    29    35   ar
    23    30    31   ar
    24    32    33   ar
    25    34    30    1
    26    18    17   ar
    27    18     9   ar
    28    27    29    1
    29     9    10   ar
    30    16    17   ar
    31     1     8    2
    32    20    21   ar
    33    22    23   ar
    34    24    26   ar
    35    29    30   ar
    36    31    32   ar
    37    33    35   ar
    38    18    19    1
    39    27    28    1
@<TRIPOS>MOLECULE
Molport-020-292-510 MCULE-9265781753
 35 39 0 0 0
SMALL
GASTEIGER

@<TRIPOS>ATOM
      1 C          16.8657   42.1303    8.1437 C.2     1  UNL1        0.2659
      2 C          15.9801   43.7603    6.4547 C.3     1  UNL1        0.0938
      3 C          14.7518   44.6658    6.4943 C.3     1  UNL1        0.0220
      4 C          13.4942   43.8639    6.1679 C.3     1  UNL1        0.0094
      5 C          13.3395   42.7108    7.1578 C.3     1  UNL1        0.0602
      6 C          14.5705   41.8072    7.1155 C.3     1  UNL1        0.0996
      7 N          15.7773   42.6044    7.3268 N.am    1  UNL1       -0.2745
      8 O          17.9929   42.6905    8.0513 O.2     1  UNL1       -0.2683
      9 C          16.7007   41.0138    9.1064 C.ar    1  UNL1        0.1244
     10 C          15.5053   40.4541    9.5266 C.ar    1  UNL1        0.0145
     11 C          14.1128   40.9402    9.2358 C.3     1  UNL1        0.0293
     12 C          13.0964   39.8079    9.3327 C.3     1  UNL1        0.0048
     13 C          12.6606   39.5271   10.7763 C.3     1  UNL1        0.0007
     14 C          13.8076   39.3764   11.7841 C.3     1  UNL1        0.0064
     15 C          14.9794   38.5819   11.2161 C.3     1  UNL1        0.0473
     16 C          15.8861   39.4830   10.4367 C.ar    1  UNL1        0.0759
     17 N          17.2281   39.4496   10.5260 N.ar    1  UNL1       -0.1773
     18 N          17.7224   40.3753    9.7158 N.ar    1  UNL1       -0.2720
     19 H          18.6787   40.5660    9.5805 H       1  UNL1        0.1891
     20 C          12.1035   41.9250    6.8689 C.ar    1  UNL1        0.0611
     21 C          10.9952   42.0559    7.7092 C.ar    1  UNL1        0.0294
     22 C           9.8404   41.3119    7.4543 C.ar    1  UNL1        0.0517
     23 C           9.8196   40.4375    6.3584 C.ar    1  UNL1        0.0294
     24 C          10.9447   40.3310    5.5389 C.ar    1  UNL1        0.0602
     25 C          10.9300   39.4071    4.3742 C.3     1  UNL1        0.0521
     26 N          12.0546   41.0696    5.8079 N.ar    1  UNL1       -0.2538
     27 N           8.7164   41.4632    8.3335 N.pl3   1  UNL1       -0.2981
     28 H           8.7248   40.9134    9.1501 H       1  UNL1        0.1536
     29 C           7.5798   42.3250    8.1586 C.ar    1  UNL1        0.1281
     30 C           6.5828   42.3735    9.1477 C.ar    1  UNL1        0.0099
     31 C           5.4840   43.2181    8.9717 C.ar    1  UNL1        0.0001
     32 C           5.3835   44.0038    7.8229 C.ar    1  UNL1        0.0204
     33 C           6.3915   43.9325    6.8604 C.ar    1  UNL1        0.1003
     34 C           6.6708   41.5412   10.3812 C.3     1  UNL1        0.0340
     35 N           7.4553   43.1050    7.0470 N.ar    1  UNL1       -0.2294
@<TRIPOS>BOND
     1     9     1    1
     2    11    10    1
     3    11    12    1
     4    12    13    1
     5    13    14    1
     6    14    15    1
     7    15    16    1
     8    16    10   ar
     9     1     7   am
    10     2     7    1
    11     2     3    1
    12     3     4    1
    13     4     5    1
    14     5     6    1
    15     5    20    1
    16     6     7    1
    17    20    26   ar
    18    21    22   ar
    19    22    27    1
    20    23    24   ar
    21    25    24    1
    22    29    35   ar
    23    30    31   ar
    24    32    33   ar
    25    34    30    1
    26    18    17   ar
    27    18     9   ar
    28    27    29    1
    29     9    10   ar
    30    16    17   ar
    31     1     8    2
    32    20    21   ar
    33    22    23   ar
    34    24    26   ar
    35    29    30   ar
    36    31    32   ar
    37    33    35   ar
    38    18    19    1
    39    27    28    1
@<TRIPOS>MOLECULE
Molport-020-292-510 MCULE-9265781753
 35 39 0 0 0
SMALL
GASTEIGER

@<TRIPOS>ATOM
      1 C           7.6758   41.3687    7.3107 C.2     1  UNL1        0.2659
      2 C           9.2870   40.9456    5.4349 C.3     1  UNL1        0.0938
      3 C          10.1919   39.7494    5.1509 C.3     1  UNL1        0.0220
      4 C          11.4447   39.8171    6.0209 C.3     1  UNL1        0.0094
      5 C          11.0531   39.8517    7.4971 C.3     1  UNL1        0.0602
      6 C          10.1476   41.0496    7.7773 C.3     1  UNL1        0.0996
      7 N           9.0042   41.0295    6.8669 N.am    1  UNL1       -0.2745
      8 O           6.7914   41.6402    6.4520 O.2     1  UNL1       -0.2683
      9 C           7.3063   41.3920    8.7471 C.ar    1  UNL1        0.1244
     10 C           6.0256   41.3408    9.2725 C.ar    1  UNL1        0.0145
     11 C           4.7238   41.4094    8.5238 C.3     1  UNL1        0.0293
     12 C           3.5959   40.7458    9.3063 C.3     1  UNL1        0.0048
     13 C           2.9930   41.6697   10.3719 C.3     1  UNL1        0.0007
     14 C           4.0134   42.3633   11.2839 C.3     1  UNL1        0.0064
     15 C           5.1517   41.4344   11.6940 C.3     1  UNL1        0.0473
     16 C           6.2161   41.4241   10.6411 C.ar    1  UNL1        0.0759
     17 N           7.5327   41.4895   10.9104 N.ar    1  UNL1       -0.1773
     18 N           8.1941   41.4657    9.7617 N.ar    1  UNL1       -0.2720
     19 H           9.1733   41.4966    9.6643 H       1  UNL1        0.1891
     20 C          12.2653   39.8973    8.3672 C.ar    1  UNL1        0.0611
     21 C          13.3391   40.7144    8.0055 C.ar    1  UNL1        0.0294
     22 C          14.4834   40.7503    8.8064 C.ar    1  UNL1        0.0517
     23 C          14.5346   39.9548    9.9599 C.ar    1  UNL1        0.0294
     24 C          13.4436   39.1498   10.2922 C.ar    1  UNL1        0.0602
     25 C          13.4897   38.3044   11.5143 C.3     1  UNL1        0.0521
     26 N          12.3407   39.1365    9.4965 N.ar    1  UNL1       -0.2538
     27 N          15.5732   41.5964    8.4119 N.pl3   1  UNL1       -0.2981
     28 H          16.4365   41.4301    8.8549 H       1  UNL1        0.1536
     29 C          15.5491   42.6586    7.4443 C.ar    1  UNL1        0.1281
     30 C          16.6115   43.5770    7.3904 C.ar    1  UNL1        0.0099
     31 C          16.5821   44.6034    6.4432 C.ar    1  UNL1        0.0001
     32 C          15.5057   44.7101    5.5615 C.ar    1  UNL1        0.0204
     33 C          14.4673   43.7811    5.6412 C.ar    1  UNL1        0.1003
     34 C          17.7695   43.4811    8.3241 C.3     1  UNL1        0.0340
     35 N          14.5111   42.7871    6.5694 N.ar    1  UNL1       -0.2294
@<TRIPOS>BOND
     1     9     1    1
     2    11    10    1
     3    11    12    1
     4    12    13    1
     5    13    14    1
     6    14    15    1
     7    15    16    1
     8    16    10   ar
     9     1     7   am
    10     2     7    1
    11     2     3    1
    12     3     4    1
    13     4     5    1
    14     5     6    1
    15     5    20    1
    16     6     7    1
    17    20    26   ar
    18    21    22   ar
    19    22    27    1
    20    23    24   ar
    21    25    24    1
    22    29    35   ar
    23    30    31   ar
    24    32    33   ar
    25    34    30    1
    26    18    17   ar
    27    18     9   ar
    28    27    29    1
    29     9    10   ar
    30    16    17   ar
    31     1     8    2
    32    20    21   ar
    33    22    23   ar
    34    24    26   ar
    35    29    30   ar
    36    31    32   ar
    37    33    35   ar
    38    18    19    1
    39    27    28    1
@<TRIPOS>MOLECULE
Molport-020-292-510 MCULE-9265781753
 35 39 0 0 0
SMALL
GASTEIGER

@<TRIPOS>ATOM
      1 C           7.2088   41.2391    8.7350 C.2     1  UNL1        0.2659
      2 C           8.1939   42.5482   10.6349 C.3     1  UNL1        0.0938
      3 C           9.1734   43.7191   10.6344 C.3     1  UNL1        0.0220
      4 C          10.5997   43.2139   10.4313 C.3     1  UNL1        0.0094
      5 C          10.6959   42.4369    9.1196 C.3     1  UNL1        0.0602
      6 C           9.7143   41.2664    9.1237 C.3     1  UNL1        0.0996
      7 N           8.3677   41.7507    9.4219 N.am    1  UNL1       -0.2745
      8 O           6.0637   41.4447    9.2245 O.2     1  UNL1       -0.2683
      9 C           7.3151   40.4919    7.4580 C.ar    1  UNL1        0.1244
     10 C           8.4811   40.1687    6.7836 C.ar    1  UNL1        0.0145
     11 C           9.8783   40.6275    7.0958 C.3     1  UNL1        0.0293
     12 C          10.9180   39.6492    6.5604 C.3     1  UNL1        0.0048
     13 C          11.2172   39.8615    5.0711 C.3     1  UNL1        0.0007
     14 C           9.9813   39.9601    4.1672 C.3     1  UNL1        0.0064
     15 C           8.8997   38.9550    4.5503 C.3     1  UNL1        0.0473
     16 C           8.0450   39.5081    5.6480 C.ar    1  UNL1        0.0759
     17 N           6.7026   39.4187    5.6654 N.ar    1  UNL1       -0.1773
     18 N           6.2602   40.0117    6.7655 N.ar    1  UNL1       -0.2720
     19 H           5.3161   40.0892    7.0338 H       1  UNL1        0.1891
     20 C          12.0888   41.9508    8.8911 C.ar    1  UNL1        0.0611
     21 C          12.5941   40.9186    9.6852 C.ar    1  UNL1        0.0294
     22 C          13.9021   40.4690    9.4879 C.ar    1  UNL1        0.0517
     23 C          14.6889   41.0719    8.4962 C.ar    1  UNL1        0.0294
     24 C          14.1526   42.1010    7.7203 C.ar    1  UNL1        0.0602
     25 C          14.9800   42.7444    6.6660 C.3     1  UNL1        0.0521
     26 N          12.8750   42.5169    7.9313 N.ar    1  UNL1       -0.2538
     27 N          14.3980   39.4086   10.3180 N.pl3   1  UNL1       -0.2981
     28 H          13.7676   39.0416   10.9791 H       1  UNL1        0.1536
     29 C          15.7092   38.8209   10.2948 C.ar    1  UNL1        0.1281
     30 C          15.9054   37.5783    9.6685 C.ar    1  UNL1        0.0099
     31 C          17.1844   37.0170    9.6463 C.ar    1  UNL1        0.0001
     32 C          18.2529   37.6887   10.2416 C.ar    1  UNL1        0.0204
     33 C          18.0239   38.9215   10.8545 C.ar    1  UNL1        0.1003
     34 C          14.7771   36.8442    9.0281 C.3     1  UNL1        0.0340
     35 N          16.7722   39.4547   10.8673 N.ar    1  UNL1       -0.2294
@<TRIPOS>BOND
     1     9     1    1
     2    11    10    1
     3    11    12    1
     4    12    13    1
     5    13    14    1
     6    14    15    1
     7    15    16    1
     8    16    10   ar
     9     1     7   am
    10     2     7    1
    11     2     3    1
    12     3     4    1
    13     4     5    1
    14     5     6    1
    15     5    20    1
    16     6     7    1
    17    20    26   ar
    18    21    22   ar
    19    22    27    1
    20    23    24   ar
    21    25    24    1
    22    29    35   ar
    23    30    31   ar
    24    32    33   ar
    25    34    30    1
    26    18    17   ar
    27    18     9   ar
    28    27    29    1
    29     9    10   ar
    30    16    17   ar
    31     1     8    2
    32    20    21   ar
    33    22    23   ar
    34    24    26   ar
    35    29    30   ar
    36    31    32   ar
    37    33    35   ar
    38    18    19    1
    39    27    28    1
@<TRIPOS>MOLECULE
Molport-020-292-510 MCULE-9265781753
 35 39 0 0 0
SMALL
GASTEIGER

@<TRIPOS>ATOM
      1 C           7.2145   41.2457    8.7219 C.2     1  UNL1        0.2659
      2 C           8.2040   42.5581   10.6172 C.3     1  UNL1        0.0938
      3 C           9.1817   43.7305   10.6123 C.3     1  UNL1        0.0220
      4 C          10.6082   43.2273   10.4049 C.3     1  UNL1        0.0094
      5 C          10.7010   42.4493    9.0935 C.3     1  UNL1        0.0602
      6 C           9.7213   41.2773    9.1021 C.3     1  UNL1        0.0996
      7 N           8.3750   41.7597    9.4044 N.am    1  UNL1       -0.2745
      8 O           6.0708   41.4500    9.2151 O.2     1  UNL1       -0.2683
      9 C           7.3176   40.4975    7.4452 C.ar    1  UNL1        0.1244
     10 C           8.4814   40.1817    6.7635 C.ar    1  UNL1        0.0145
     11 C           9.8773   40.6507    7.0658 C.3     1  UNL1        0.0293
     12 C          10.9204   39.6791    6.5248 C.3     1  UNL1        0.0048
     13 C          11.2082   39.8915    5.0332 C.3     1  UNL1        0.0007
     14 C           9.9657   39.9800    4.1375 C.3     1  UNL1        0.0064
     15 C           8.8938   38.9679    4.5291 C.3     1  UNL1        0.0473
     16 C           8.0424   39.5163    5.6317 C.ar    1  UNL1        0.0759
     17 N           6.7009   39.4175    5.6582 N.ar    1  UNL1       -0.1773
     18 N           6.2616   40.0088    6.7604 N.ar    1  UNL1       -0.2720
     19 H           5.3188   40.0801    7.0349 H       1  UNL1        0.1891
     20 C          12.0939   41.9651    8.8607 C.ar    1  UNL1        0.0611
     21 C          12.5803   40.8897    9.6080 C.ar    1  UNL1        0.0294
     22 C          13.8881   40.4410    9.4070 C.ar    1  UNL1        0.0517
     23 C          14.6937   41.0881    8.4592 C.ar    1  UNL1        0.0294
     24 C          14.1760   42.1597    7.7296 C.ar    1  UNL1        0.0602
     25 C          15.0235   42.8502    6.7219 C.3     1  UNL1        0.0521
     26 N          12.8982   42.5738    7.9429 N.ar    1  UNL1       -0.2538
     27 N          14.3643   39.3357   10.1886 N.pl3   1  UNL1       -0.2981
     28 H          14.4962   39.5061   11.1492 H       1  UNL1        0.1536
     29 C          14.6707   38.0088    9.7299 C.ar    1  UNL1        0.1281
     30 C          13.6761   37.0162    9.7524 C.ar    1  UNL1        0.0099
     31 C          13.9815   35.7303    9.2998 C.ar    1  UNL1        0.0001
     32 C          15.2634   35.4406    8.8308 C.ar    1  UNL1        0.0204
     33 C          16.2277   36.4495    8.8212 C.ar    1  UNL1        0.1003
     34 C          12.3013   37.3050   10.2509 C.3     1  UNL1        0.0340
     35 N          15.9141   37.6968    9.2651 N.ar    1  UNL1       -0.2294
@<TRIPOS>BOND
     1     9     1    1
     2    11    10    1
     3    11    12    1
     4    12    13    1
     5    13    14    1
     6    14    15    1
     7    15    16    1
     8    16    10   ar
     9     1     7   am
    10     2     7    1
    11     2     3    1
    12     3     4    1
    13     4     5    1
    14     5     6    1
    15     5    20    1
    16     6     7    1
    17    20    26   ar
    18    21    22   ar
    19    22    27    1
    20    23    24   ar
    21    25    24    1
    22    29    35   ar
    23    30    31   ar
    24    32    33   ar
    25    34    30    1
    26    18    17   ar
    27    18     9   ar
    28    27    29    1
    29     9    10   ar
    30    16    17   ar
    31     1     8    2
    32    20    21   ar
    33    22    23   ar
    34    24    26   ar
    35    29    30   ar
    36    31    32   ar
    37    33    35   ar
    38    18    19    1
    39    27    28    1
