@<TRIPOS>MOLECULE
MolPort-020-295-258 MCULE-5000291440 PubChem-110267346
 27 30 0 0 0
SMALL
GASTEIGER

@<TRIPOS>ATOM
      1 C          11.6146   41.5415    7.0815 C.ar    1  UNL1        0.2214
      2 C           9.6568   40.9315    8.2645 C.ar    1  UNL1        0.1031
      3 C          10.3423   39.8896    8.8847 C.ar    1  UNL1        0.0356
      4 C          11.6925   39.7004    8.5704 C.ar    1  UNL1        0.0647
      5 N          10.3005   41.7347    7.3788 N.ar    1  UNL1       -0.2120
      6 N          12.2969   40.5288    7.6788 N.ar    1  UNL1       -0.2179
      7 C          12.4876   38.6030    9.2027 C.3     1  UNL1        0.0603
      8 C          11.6395   37.3421    9.3899 C.3     1  UNL1        0.0094
      9 C          12.4738   36.2275   10.0176 C.3     1  UNL1        0.0219
     10 C          13.0431   36.6917   11.3552 C.3     1  UNL1        0.0934
     11 C          13.0857   39.0568   10.5351 C.3     1  UNL1        0.0992
     12 C          15.1591   38.0398   11.5517 C.2     1  UNL1        0.2252
     13 N          13.7817   37.9366   11.1627 N.am    1  UNL1       -0.2792
     14 O          15.7349   37.0522   12.0883 O.2     1  UNL1       -0.2749
     15 C          15.9200   39.3168   11.3156 C.3     1  UNL1        0.0767
     16 C          17.4161   39.1044   11.4524 C.3     1  UNL1        0.0091
     17 C          17.5912   39.3844    9.9724 C.3     1  UNL1        0.0010
     18 C          16.0949   39.5875    9.8332 C.3     1  UNL1        0.0091
     19 N          12.2965   42.3883    6.1485 N.pl3   1  UNL1       -0.2680
     20 H          11.7886   42.6751    5.3554 H       1  UNL1        0.1565
     21 C          17.6629   44.2419    6.5965 C.3     1  UNL1        0.0327
     22 C          16.2644   43.7520    6.4867 C.ar    1  UNL1       -0.0026
     23 C          15.3830   44.3334    5.5737 C.ar    1  UNL1        0.0960
     24 C          13.6453   42.8585    6.2573 C.ar    1  UNL1        0.1343
     25 C          14.5021   42.2548    7.1821 C.ar    1  UNL1        0.0342
     26 C          15.8183   42.7061    7.2951 C.ar    1  UNL1        0.0001
     27 N          14.1045   43.8789    5.4788 N.ar    1  UNL1       -0.2293
@<TRIPOS>BOND
     1    21    22    1
     2    23    27   ar
     3    24    25   ar
     4    24    19    1
     5    26    22   ar
     6     1     6   ar
     7     2     5   ar
     8     3     4   ar
     9     7     4    1
    10     7     8    1
    11     8     9    1
    12     9    10    1
    13    10    13    1
    14    11    13    1
    15    11     7    1
    16    15    12    1
    17    15    16    1
    18    16    17    1
    19    17    18    1
    20    18    15    1
    21    19     1    1
    22    13    12   am
    23    22    23   ar
    24    24    27   ar
    25    25    26   ar
    26     1     5   ar
    27     2     3   ar
    28     4     6   ar
    29    12    14    2
    30    19    20    1
@<TRIPOS>MOLECULE
MolPort-020-295-258 MCULE-5000291440 PubChem-110267346
 27 30 0 0 0
SMALL
GASTEIGER

@<TRIPOS>ATOM
      1 C          11.4239   41.8056    6.4497 C.ar    1  UNL1        0.2214
      2 C           9.4797   40.4674    6.6336 C.ar    1  UNL1        0.1031
      3 C          10.0379   39.7841    7.7113 C.ar    1  UNL1        0.0356
      4 C          11.3197   40.1475    8.1386 C.ar    1  UNL1        0.0647
      5 N          10.1778   41.4603    6.0246 N.ar    1  UNL1       -0.2120
      6 N          11.9819   41.1478    7.5003 N.ar    1  UNL1       -0.2179
      7 C          11.9757   39.4569    9.2915 C.3     1  UNL1        0.0603
      8 C          12.0426   40.3702   10.5184 C.3     1  UNL1        0.0094
      9 C          12.6966   39.6408   11.6901 C.3     1  UNL1        0.0219
     10 C          14.0942   39.1706   11.2976 C.3     1  UNL1        0.0934
     11 C          13.3702   38.9579    8.9104 C.3     1  UNL1        0.0992
     12 C          14.5204   37.0248   10.0536 C.2     1  UNL1        0.2252
     13 N          14.0122   38.3665   10.0814 N.am    1  UNL1       -0.2792
     14 O          15.0666   36.5396   11.0836 O.2     1  UNL1       -0.2749
     15 C          14.3981   36.1934    8.8049 C.3     1  UNL1        0.0767
     16 C          15.7380   36.0342    8.1110 C.3     1  UNL1        0.0091
     17 C          15.7254   34.5511    8.4268 C.3     1  UNL1        0.0010
     18 C          14.3907   34.7113    9.1287 C.3     1  UNL1        0.0091
     19 N          12.1621   42.8536    5.8099 N.pl3   1  UNL1       -0.2680
     20 H          11.6959   43.3593    5.1055 H       1  UNL1        0.1565
     21 C          17.5337   44.3598    6.9553 C.3     1  UNL1        0.0327
     22 C          16.1334   43.9588    6.6616 C.ar    1  UNL1       -0.0026
     23 C          15.3027   44.7942    5.9129 C.ar    1  UNL1        0.0960
     24 C          13.5125   43.2374    6.0953 C.ar    1  UNL1        0.1343
     25 C          14.3177   42.3779    6.8482 C.ar    1  UNL1        0.0342
     26 C          15.6349   42.7433    7.1312 C.ar    1  UNL1        0.0001
     27 N          14.0223   44.4197    5.6479 N.ar    1  UNL1       -0.2293
@<TRIPOS>BOND
     1    21    22    1
     2    23    27   ar
     3    24    25   ar
     4    24    19    1
     5    26    22   ar
     6     1     6   ar
     7     2     5   ar
     8     3     4   ar
     9     7     4    1
    10     7     8    1
    11     8     9    1
    12     9    10    1
    13    10    13    1
    14    11    13    1
    15    11     7    1
    16    15    12    1
    17    15    16    1
    18    16    17    1
    19    17    18    1
    20    18    15    1
    21    19     1    1
    22    13    12   am
    23    22    23   ar
    24    24    27   ar
    25    25    26   ar
    26     1     5   ar
    27     2     3   ar
    28     4     6   ar
    29    12    14    2
    30    19    20    1
@<TRIPOS>MOLECULE
MolPort-020-295-258 MCULE-5000291440 PubChem-110267346
 27 30 0 0 0
SMALL
GASTEIGER

@<TRIPOS>ATOM
      1 C          11.8733   41.6940    7.9209 C.ar    1  UNL1        0.2214
      2 C          11.5599   41.0179   10.1680 C.ar    1  UNL1        0.1031
      3 C          10.2510   40.6365    9.8828 C.ar    1  UNL1        0.0356
      4 C           9.7782   40.8033    8.5766 C.ar    1  UNL1        0.0647
      5 N          12.3440   41.5371    9.1884 N.ar    1  UNL1       -0.2120
      6 N          10.5980   41.3263    7.6273 N.ar    1  UNL1       -0.2179
      7 C           8.3845   40.4113    8.2023 C.3     1  UNL1        0.0603
      8 C           8.2881   40.0629    6.7146 C.3     1  UNL1        0.0094
      9 C           6.8631   39.6460    6.3566 C.3     1  UNL1        0.0219
     10 C           5.8878   40.7660    6.7071 C.3     1  UNL1        0.0934
     11 C           7.3883   41.5130    8.5668 C.3     1  UNL1        0.0992
     12 C           4.9421   41.0885    9.0169 C.2     1  UNL1        0.2252
     13 N           6.0540   41.1328    8.1108 N.am    1  UNL1       -0.2792
     14 O           3.8011   40.7517    8.5935 O.2     1  UNL1       -0.2749
     15 C           5.1334   41.4345   10.4692 C.3     1  UNL1        0.0767
     16 C           4.1496   42.4980   10.9202 C.3     1  UNL1        0.0091
     17 C           3.4744   41.4885   11.8282 C.3     1  UNL1        0.0010
     18 C           4.4515   40.4227   11.3708 C.3     1  UNL1        0.0091
     19 N          12.6988   42.2403    6.8852 N.pl3   1  UNL1       -0.2680
     20 H          12.3028   42.2988    5.9858 H       1  UNL1        0.1565
     21 C          18.0536   44.0876    7.4753 C.3     1  UNL1        0.0327
     22 C          16.6587   43.5979    7.3266 C.ar    1  UNL1       -0.0026
     23 C          15.7154   44.3559    6.6309 C.ar    1  UNL1        0.0960
     24 C          14.0444   42.7097    7.0309 C.ar    1  UNL1        0.1343
     25 C          14.9642   41.9264    7.7340 C.ar    1  UNL1        0.0342
     26 C          16.2778   42.3755    7.8810 C.ar    1  UNL1        0.0001
     27 N          14.4406   43.9005    6.4987 N.ar    1  UNL1       -0.2293
@<TRIPOS>BOND
     1    21    22    1
     2    23    27   ar
     3    24    25   ar
     4    24    19    1
     5    26    22   ar
     6     1     6   ar
     7     2     5   ar
     8     3     4   ar
     9     7     4    1
    10     7     8    1
    11     8     9    1
    12     9    10    1
    13    10    13    1
    14    11    13    1
    15    11     7    1
    16    15    12    1
    17    15    16    1
    18    16    17    1
    19    17    18    1
    20    18    15    1
    21    19     1    1
    22    13    12   am
    23    22    23   ar
    24    24    27   ar
    25    25    26   ar
    26     1     5   ar
    27     2     3   ar
    28     4     6   ar
    29    12    14    2
    30    19    20    1
@<TRIPOS>MOLECULE
MolPort-020-295-258 MCULE-5000291440 PubChem-110267346
 27 30 0 0 0
SMALL
GASTEIGER

@<TRIPOS>ATOM
      1 C          11.4360   41.8218    6.3968 C.ar    1  UNL1        0.2214
      2 C          10.4428   39.6728    6.3796 C.ar    1  UNL1        0.1031
      3 C           9.6598   40.0133    7.4801 C.ar    1  UNL1        0.0356
      4 C           9.7963   41.2953    8.0237 C.ar    1  UNL1        0.0647
      5 N          11.3124   40.5772    5.8599 N.ar    1  UNL1       -0.2120
      6 N          10.6785   42.1687    7.4709 N.ar    1  UNL1       -0.2179
      7 C           8.9837   41.7262    9.2028 C.3     1  UNL1        0.0603
      8 C           9.7266   41.4586   10.5145 C.3     1  UNL1        0.0094
      9 C           8.8900   41.9236   11.7047 C.3     1  UNL1        0.0219
     10 C           7.5389   41.2144   11.7018 C.3     1  UNL1        0.0934
     11 C           7.6157   41.0426    9.2053 C.3     1  UNL1        0.0992
     12 C           5.5772   42.0057   10.3383 C.2     1  UNL1        0.2252
     13 N           6.8852   41.4202   10.4123 N.am    1  UNL1       -0.2792
     14 O           4.9724   42.3259   11.3996 O.2     1  UNL1       -0.2749
     15 C           4.9285   42.2457    9.0015 C.3     1  UNL1        0.0767
     16 C           3.4973   42.7247    9.1574 C.3     1  UNL1        0.0091
     17 C           3.8858   44.0730    8.5824 C.3     1  UNL1        0.0010
     18 C           5.3184   43.5980    8.4350 C.3     1  UNL1        0.0091
     19 N          12.3516   42.7783    5.8495 N.pl3   1  UNL1       -0.2680
     20 H          12.0427   43.2930    5.0692 H       1  UNL1        0.1565
     21 C          17.6044   43.8726    7.7586 C.3     1  UNL1        0.0327
     22 C          16.2339   43.5788    7.2655 C.ar    1  UNL1       -0.0026
     23 C          15.5704   44.4896    6.4417 C.ar    1  UNL1        0.0960
     24 C          13.6728   43.0585    6.3271 C.ar    1  UNL1        0.1343
     25 C          14.3089   42.1254    7.1509 C.ar    1  UNL1        0.0342
     26 C          15.5965   42.3897    7.6211 C.ar    1  UNL1        0.0001
     27 N          14.3161   44.2132    5.9940 N.ar    1  UNL1       -0.2293
@<TRIPOS>BOND
     1    21    22    1
     2    23    27   ar
     3    24    25   ar
     4    24    19    1
     5    26    22   ar
     6     1     6   ar
     7     2     5   ar
     8     3     4   ar
     9     7     4    1
    10     7     8    1
    11     8     9    1
    12     9    10    1
    13    10    13    1
    14    11    13    1
    15    11     7    1
    16    15    12    1
    17    15    16    1
    18    16    17    1
    19    17    18    1
    20    18    15    1
    21    19     1    1
    22    13    12   am
    23    22    23   ar
    24    24    27   ar
    25    25    26   ar
    26     1     5   ar
    27     2     3   ar
    28     4     6   ar
    29    12    14    2
    30    19    20    1
@<TRIPOS>MOLECULE
MolPort-020-295-258 MCULE-5000291440 PubChem-110267346
 27 30 0 0 0
SMALL
GASTEIGER

@<TRIPOS>ATOM
      1 C          15.5634   42.6042    7.3206 C.ar    1  UNL1        0.2214
      2 C          14.8698   43.9986    5.5377 C.ar    1  UNL1        0.1031
      3 C          13.5660   43.5234    5.6579 C.ar    1  UNL1        0.0356
      4 C          13.2937   42.5674    6.6426 C.ar    1  UNL1        0.0647
      5 N          15.8404   43.5338    6.3658 N.ar    1  UNL1       -0.2120
      6 N          14.2957   42.1309    7.4501 N.ar    1  UNL1       -0.2179
      7 C          11.9152   42.0181    6.8273 C.3     1  UNL1        0.0603
      8 C          11.4773   42.1028    8.2920 C.3     1  UNL1        0.0094
      9 C          10.0606   41.5564    8.4566 C.3     1  UNL1        0.0219
     10 C           9.9969   40.1140    7.9628 C.3     1  UNL1        0.0934
     11 C          11.8252   40.5792    6.3170 C.3     1  UNL1        0.0992
     12 C           9.6773   39.5060    5.5417 C.2     1  UNL1        0.2252
     13 N          10.4925   40.0482    6.5908 N.am    1  UNL1       -0.2792
     14 O           8.5272   39.0582    5.8090 O.2     1  UNL1       -0.2749
     15 C          10.1853   39.4762    4.1252 C.3     1  UNL1        0.0767
     16 C          11.0541   38.2580    3.8730 C.3     1  UNL1        0.0091
     17 C          10.0110   37.7119    2.9173 C.3     1  UNL1        0.0010
     18 C           9.1381   38.9247    3.1761 C.3     1  UNL1        0.0091
     19 N          16.5853   42.1131    8.1965 N.pl3   1  UNL1       -0.2680
     20 H          17.4479   42.5873    8.1827 H       1  UNL1        0.1565
     21 C          16.1210   37.6854   11.7482 C.3     1  UNL1        0.0327
     22 C          16.2326   38.8412   10.8213 C.ar    1  UNL1       -0.0026
     23 C          17.4865   39.3331   10.4548 C.ar    1  UNL1        0.0960
     24 C          16.4741   40.9991    9.0904 C.ar    1  UNL1        0.1343
     25 C          15.2034   40.5316    9.4376 C.ar    1  UNL1        0.0342
     26 C          15.0851   39.4466   10.3079 C.ar    1  UNL1        0.0001
     27 N          17.5802   40.3912    9.6053 N.ar    1  UNL1       -0.2293
@<TRIPOS>BOND
     1    21    22    1
     2    23    27   ar
     3    24    25   ar
     4    24    19    1
     5    26    22   ar
     6     1     6   ar
     7     2     5   ar
     8     3     4   ar
     9     7     4    1
    10     7     8    1
    11     8     9    1
    12     9    10    1
    13    10    13    1
    14    11    13    1
    15    11     7    1
    16    15    12    1
    17    15    16    1
    18    16    17    1
    19    17    18    1
    20    18    15    1
    21    19     1    1
    22    13    12   am
    23    22    23   ar
    24    24    27   ar
    25    25    26   ar
    26     1     5   ar
    27     2     3   ar
    28     4     6   ar
    29    12    14    2
    30    19    20    1
@<TRIPOS>MOLECULE
MolPort-020-295-258 MCULE-5000291440 PubChem-110267346
 27 30 0 0 0
SMALL
GASTEIGER

@<TRIPOS>ATOM
      1 C          13.9723   42.4303    6.7772 C.ar    1  UNL1        0.2214
      2 C          16.1199   43.4231    6.8615 C.ar    1  UNL1        0.1031
      3 C          16.4919   42.5586    7.8882 C.ar    1  UNL1        0.0356
      4 C          15.5562   41.6232    8.3434 C.ar    1  UNL1        0.0647
      5 N          14.8741   43.3450    6.3268 N.ar    1  UNL1       -0.2120
      6 N          14.3209   41.5798    7.7787 N.ar    1  UNL1       -0.2179
      7 C          15.8919   40.6637    9.4401 C.3     1  UNL1        0.0603
      8 C          17.4066   40.4857    9.5753 C.3     1  UNL1        0.0094
      9 C          17.7296   39.5188   10.7126 C.3     1  UNL1        0.0219
     10 C          17.0540   38.1737   10.4620 C.3     1  UNL1        0.0934
     11 C          15.2052   39.3153    9.2184 C.3     1  UNL1        0.0992
     12 C          14.6607   37.7042   11.0823 C.2     1  UNL1        0.2252
     13 N          15.6226   38.3797   10.2592 N.am    1  UNL1       -0.2792
     14 O          15.0527   36.9040   11.9772 O.2     1  UNL1       -0.2749
     15 C          13.1889   37.9518   10.8872 C.3     1  UNL1        0.0767
     16 C          12.8223   37.9851    9.4152 C.3     1  UNL1        0.0091
     17 C          12.0147   36.7133    9.5875 C.3     1  UNL1        0.0010
     18 C          12.3884   36.6743   11.0567 C.3     1  UNL1        0.0091
     19 N          12.6578   42.3448    6.2140 N.pl3   1  UNL1       -0.2680
     20 H          12.3861   43.0714    5.6077 H       1  UNL1        0.1565
     21 C           8.8537   38.2043    7.1191 C.3     1  UNL1        0.0327
     22 C           9.8469   39.2818    6.8737 C.ar    1  UNL1       -0.0026
     23 C          10.1983   40.1636    7.8972 C.ar    1  UNL1        0.0960
     24 C          11.7002   41.3051    6.4469 C.ar    1  UNL1        0.1343
     25 C          11.3702   40.4393    5.4003 C.ar    1  UNL1        0.0342
     26 C          10.4382   39.4230    5.6179 C.ar    1  UNL1        0.0001
     27 N          11.1087   41.1471    7.6648 N.ar    1  UNL1       -0.2293
@<TRIPOS>BOND
     1    21    22    1
     2    23    27   ar
     3    24    25   ar
     4    24    19    1
     5    26    22   ar
     6     1     6   ar
     7     2     5   ar
     8     3     4   ar
     9     7     4    1
    10     7     8    1
    11     8     9    1
    12     9    10    1
    13    10    13    1
    14    11    13    1
    15    11     7    1
    16    15    12    1
    17    15    16    1
    18    16    17    1
    19    17    18    1
    20    18    15    1
    21    19     1    1
    22    13    12   am
    23    22    23   ar
    24    24    27   ar
    25    25    26   ar
    26     1     5   ar
    27     2     3   ar
    28     4     6   ar
    29    12    14    2
    30    19    20    1
@<TRIPOS>MOLECULE
MolPort-020-295-258 MCULE-5000291440 PubChem-110267346
 27 30 0 0 0
SMALL
GASTEIGER

@<TRIPOS>ATOM
      1 C          16.3916   39.9951   10.0566 C.ar    1  UNL1        0.2214
      2 C          16.2388   38.3550   11.7570 C.ar    1  UNL1        0.1031
      3 C          14.8663   38.2470   11.5456 C.ar    1  UNL1        0.0356
      4 C          14.2793   39.0475   10.5595 C.ar    1  UNL1        0.0647
      5 N          16.9736   39.2219   11.0137 N.ar    1  UNL1       -0.2120
      6 N          15.0531   39.9008    9.8387 N.ar    1  UNL1       -0.2179
      7 C          12.8120   38.9784   10.2793 C.3     1  UNL1        0.0603
      8 C          12.4653   37.7422    9.4452 C.3     1  UNL1        0.0094
      9 C          10.9614   37.6787    9.1871 C.3     1  UNL1        0.0219
     10 C          10.4994   38.9482    8.4777 C.3     1  UNL1        0.0934
     11 C          12.3252   40.2528    9.5880 C.3     1  UNL1        0.0992
     12 C           9.9430   41.0770    9.6992 C.2     1  UNL1        0.2252
     13 N          10.9101   40.1149    9.2539 N.am    1  UNL1       -0.2792
     14 O           8.7256   40.9282    9.3979 O.2     1  UNL1       -0.2749
     15 C          10.3735   42.2566   10.5290 C.3     1  UNL1        0.0767
     16 C          10.7172   43.4511    9.6587 C.3     1  UNL1        0.0091
     17 C           9.5261   44.2030   10.2203 C.3     1  UNL1        0.0010
     18 C           9.1766   43.0061   11.0834 C.3     1  UNL1        0.0091
     19 N          17.1647   40.9096    9.2701 N.pl3   1  UNL1       -0.2680
     20 H          18.1437   40.8148    9.3130 H       1  UNL1        0.1565
     21 C          15.1452   45.0510    5.9228 C.3     1  UNL1        0.0327
     22 C          15.6799   43.9759    6.7980 C.ar    1  UNL1       -0.0026
     23 C          14.9434   42.8097    7.0128 C.ar    1  UNL1        0.0960
     24 C          16.6520   41.9483    8.4273 C.ar    1  UNL1        0.1343
     25 C          17.4146   43.1037    8.2335 C.ar    1  UNL1        0.0342
     26 C          16.9233   44.1212    7.4138 C.ar    1  UNL1        0.0001
     27 N          15.4399   41.8299    7.8149 N.ar    1  UNL1       -0.2293
@<TRIPOS>BOND
     1    21    22    1
     2    23    27   ar
     3    24    25   ar
     4    24    19    1
     5    26    22   ar
     6     1     6   ar
     7     2     5   ar
     8     3     4   ar
     9     7     4    1
    10     7     8    1
    11     8     9    1
    12     9    10    1
    13    10    13    1
    14    11    13    1
    15    11     7    1
    16    15    12    1
    17    15    16    1
    18    16    17    1
    19    17    18    1
    20    18    15    1
    21    19     1    1
    22    13    12   am
    23    22    23   ar
    24    24    27   ar
    25    25    26   ar
    26     1     5   ar
    27     2     3   ar
    28     4     6   ar
    29    12    14    2
    30    19    20    1
@<TRIPOS>MOLECULE
MolPort-020-295-258 MCULE-5000291440 PubChem-110267346
 27 30 0 0 0
SMALL
GASTEIGER

@<TRIPOS>ATOM
      1 C          17.3655   40.1427    9.7511 C.ar    1  UNL1        0.2214
      2 C          17.7215   38.1672   11.0062 C.ar    1  UNL1        0.1031
      3 C          16.3542   37.9016   10.9976 C.ar    1  UNL1        0.0356
      4 C          15.5053   38.7997   10.3417 C.ar    1  UNL1        0.0647
      5 N          18.2010   39.2765   10.3868 N.ar    1  UNL1       -0.2120
      6 N          16.0287   39.8969    9.7342 N.ar    1  UNL1       -0.2179
      7 C          14.0281   38.5723   10.2919 C.3     1  UNL1        0.0603
      8 C          13.6656   37.1756   10.8035 C.3     1  UNL1        0.0094
      9 C          12.1527   36.9702   10.7640 C.3     1  UNL1        0.0219
     10 C          11.6359   37.1688    9.3420 C.3     1  UNL1        0.0934
     11 C          13.4872   38.7891    8.8779 C.3     1  UNL1        0.0992
     12 C          11.0983   39.4321    8.3817 C.2     1  UNL1        0.2252
     13 N          12.0610   38.4761    8.8492 N.am    1  UNL1       -0.2792
     14 O           9.8713   39.1337    8.3730 O.2     1  UNL1       -0.2749
     15 C          11.5455   40.7895    7.9095 C.3     1  UNL1        0.0767
     16 C          11.8609   40.7843    6.4253 C.3     1  UNL1        0.0091
     17 C          10.6817   41.7034    6.1715 C.3     1  UNL1        0.0010
     18 C          10.3604   41.7014    7.6535 C.3     1  UNL1        0.0091
     19 N          17.8689   41.3131    9.0957 N.pl3   1  UNL1       -0.2680
     20 H          18.8182   41.5298    9.2407 H       1  UNL1        0.1565
     21 C          14.8947   44.8213    5.7371 C.3     1  UNL1        0.0327
     22 C          15.6630   43.9004    6.6142 C.ar    1  UNL1       -0.0026
     23 C          17.0078   44.1496    6.8929 C.ar    1  UNL1        0.0960
     24 C          17.1254   42.1987    8.2501 C.ar    1  UNL1        0.1343
     25 C          15.7804   41.9198    7.9907 C.ar    1  UNL1        0.0342
     26 C          15.0478   42.7772    7.1679 C.ar    1  UNL1        0.0001
     27 N          17.7041   43.3021    7.6972 N.ar    1  UNL1       -0.2293
@<TRIPOS>BOND
     1    21    22    1
     2    23    27   ar
     3    24    25   ar
     4    24    19    1
     5    26    22   ar
     6     1     6   ar
     7     2     5   ar
     8     3     4   ar
     9     7     4    1
    10     7     8    1
    11     8     9    1
    12     9    10    1
    13    10    13    1
    14    11    13    1
    15    11     7    1
    16    15    12    1
    17    15    16    1
    18    16    17    1
    19    17    18    1
    20    18    15    1
    21    19     1    1
    22    13    12   am
    23    22    23   ar
    24    24    27   ar
    25    25    26   ar
    26     1     5   ar
    27     2     3   ar
    28     4     6   ar
    29    12    14    2
    30    19    20    1
@<TRIPOS>MOLECULE
MolPort-020-295-258 MCULE-5000291440 PubChem-110267346
 27 30 0 0 0
SMALL
GASTEIGER

@<TRIPOS>ATOM
      1 C          11.6903   40.6197    9.6273 C.ar    1  UNL1        0.2214
      2 C          13.7488   39.4525    9.5560 C.ar    1  UNL1        0.1031
      3 C          14.3041   40.4569    8.7667 C.ar    1  UNL1        0.0356
      4 C          13.5036   41.5508    8.4200 C.ar    1  UNL1        0.0647
      5 N          12.4593   39.5503    9.9703 N.ar    1  UNL1       -0.2120
      6 N          12.2183   41.6078    8.8575 N.ar    1  UNL1       -0.2179
      7 C          14.0386   42.6649    7.5781 C.3     1  UNL1        0.0603
      8 C          13.0981   42.9777    6.4112 C.3     1  UNL1        0.0094
      9 C          13.6511   44.1304    5.5758 C.3     1  UNL1        0.0219
     10 C          15.0438   43.7801    5.0601 C.3     1  UNL1        0.0934
     11 C          15.4443   42.3419    7.0698 C.3     1  UNL1        0.0992
     12 C          17.1333   44.1022    6.4253 C.2     1  UNL1        0.2252
     13 N          15.8992   43.4107    6.1845 N.am    1  UNL1       -0.2792
     14 O          17.4978   45.0252    5.6443 O.2     1  UNL1       -0.2749
     15 C          17.9891   43.7363    7.6081 C.3     1  UNL1        0.0767
     16 C          17.2451   43.9386    8.9150 C.3     1  UNL1        0.0091
     17 C          17.2568   42.4411    9.1535 C.3     1  UNL1        0.0010
     18 C          17.9921   42.2375    7.8429 C.3     1  UNL1        0.0091
     19 N          10.3300   40.7259   10.0641 N.pl3   1  UNL1       -0.2680
     20 H          10.0806   40.2163   10.8687 H       1  UNL1        0.1565
     21 C           6.2191   43.7914    7.5866 C.3     1  UNL1        0.0327
     22 C           7.2898   42.9843    8.2270 C.ar    1  UNL1       -0.0026
     23 C           8.0621   43.5265    9.2556 C.ar    1  UNL1        0.0960
     24 C           9.2973   41.5014    9.4442 C.ar    1  UNL1        0.1343
     25 C           8.5425   40.9286    8.4165 C.ar    1  UNL1        0.0342
     26 C           7.5339   41.6766    7.8065 C.ar    1  UNL1        0.0001
     27 N           9.0400   42.7811    9.8371 N.ar    1  UNL1       -0.2293
@<TRIPOS>BOND
     1    21    22    1
     2    23    27   ar
     3    24    25   ar
     4    24    19    1
     5    26    22   ar
     6     1     6   ar
     7     2     5   ar
     8     3     4   ar
     9     7     4    1
    10     7     8    1
    11     8     9    1
    12     9    10    1
    13    10    13    1
    14    11    13    1
    15    11     7    1
    16    15    12    1
    17    15    16    1
    18    16    17    1
    19    17    18    1
    20    18    15    1
    21    19     1    1
    22    13    12   am
    23    22    23   ar
    24    24    27   ar
    25    25    26   ar
    26     1     5   ar
    27     2     3   ar
    28     4     6   ar
    29    12    14    2
    30    19    20    1
@<TRIPOS>MOLECULE
MolPort-020-295-258 MCULE-5000291440 PubChem-110267346
 27 30 0 0 0
SMALL
GASTEIGER

@<TRIPOS>ATOM
      1 C          15.5516   42.4835    7.4242 C.ar    1  UNL1        0.2214
      2 C          14.6580   43.8079    5.6772 C.ar    1  UNL1        0.1031
      3 C          13.4271   43.1689    5.8068 C.ar    1  UNL1        0.0356
      4 C          13.2942   42.1699    6.7773 C.ar    1  UNL1        0.0647
      5 N          15.6930   43.4565    6.4829 N.ar    1  UNL1       -0.2120
      6 N          14.3564   41.8509    7.5625 N.ar    1  UNL1       -0.2179
      7 C          11.9997   41.4468    6.9710 C.3     1  UNL1        0.0603
      8 C          11.4836   40.8719    5.6492 C.3     1  UNL1        0.0094
      9 C          10.1725   40.1207    5.8711 C.3     1  UNL1        0.0219
     10 C           9.1348   41.0532    6.4892 C.3     1  UNL1        0.0934
     11 C          10.9524   42.3593    7.6110 C.3     1  UNL1        0.0992
     12 C           8.9982   41.5074    8.9608 C.2     1  UNL1        0.2252
     13 N           9.6803   41.6481    7.7061 N.am    1  UNL1       -0.2792
     14 O           7.9017   40.8830    9.0119 O.2     1  UNL1       -0.2749
     15 C           9.5884   42.0946   10.2147 C.3     1  UNL1        0.0767
     16 C           8.5547   42.1929   11.3211 C.3     1  UNL1        0.0091
     17 C           9.3126   41.1518   12.1218 C.3     1  UNL1        0.0010
     18 C          10.3410   41.0462   11.0123 C.3     1  UNL1        0.0091
     19 N          16.6416   42.1118    8.2765 N.pl3   1  UNL1       -0.2680
     20 H          17.4164   42.7188    8.2972 H       1  UNL1        0.1565
     21 C          16.9064   37.4647   11.5580 C.3     1  UNL1        0.0327
     22 C          16.8278   38.6774   10.7032 C.ar    1  UNL1       -0.0026
     23 C          17.9875   39.2368   10.1641 C.ar    1  UNL1        0.0960
     24 C          16.7138   40.9429    9.1014 C.ar    1  UNL1        0.1343
     25 C          15.5336   40.4083    9.6260 C.ar    1  UNL1        0.0342
     26 C          15.5940   39.2693   10.4309 C.ar    1  UNL1        0.0001
     27 N          17.9071   40.3468    9.3821 N.ar    1  UNL1       -0.2293
@<TRIPOS>BOND
     1    21    22    1
     2    23    27   ar
     3    24    25   ar
     4    24    19    1
     5    26    22   ar
     6     1     6   ar
     7     2     5   ar
     8     3     4   ar
     9     7     4    1
    10     7     8    1
    11     8     9    1
    12     9    10    1
    13    10    13    1
    14    11    13    1
    15    11     7    1
    16    15    12    1
    17    15    16    1
    18    16    17    1
    19    17    18    1
    20    18    15    1
    21    19     1    1
    22    13    12   am
    23    22    23   ar
    24    24    27   ar
    25    25    26   ar
    26     1     5   ar
    27     2     3   ar
    28     4     6   ar
    29    12    14    2
    30    19    20    1
