@<TRIPOS>MOLECULE
MolPort-029-896-536 96149094 CSSS00159654518 MCULE-9308766807 PubChem-72885521 ZINC000096149094 ZINC96149094
 25 26 0 0 0
SMALL
GASTEIGER

@<TRIPOS>ATOM
      1 C          12.1522   41.1943    8.7987 C.2     1  UNL1        0.3045
      2 O          11.8673   42.3182    9.2947 O.2     1  UNL1       -0.2525
      3 N          12.9922   41.0954    7.6438 N.am    1  UNL1       -0.2657
      4 N          11.6337   39.9988    9.3847 N.am    1  UNL1       -0.2887
      5 H          13.1787   40.1931    7.2968 H       1  UNL1        0.1565
      6 H          11.8538   39.1348    8.9672 H       1  UNL1        0.1510
      7 C          14.7580   42.8195    7.3145 C.ar    1  UNL1        0.1141
      8 C          13.5837   42.2005    6.9517 C.ar    1  UNL1        0.0917
      9 C          13.1029   42.8350    5.8205 C.ar    1  UNL1        0.1364
     10 N          14.9496   43.7967    6.4105 N.ar    1  UNL1       -0.2187
     11 N          13.9753   43.8153    5.5150 N.ar    1  UNL1       -0.1641
     12 C          16.0793   44.7097    6.3859 C.3     1  UNL1        0.2733
     13 O          17.0151   44.2794    5.4444 O.3     1  UNL1       -0.3311
     14 C          18.2114   44.0749    7.4867 C.3     1  UNL1        0.0347
     15 C          17.8674   43.4373    6.1570 C.3     1  UNL1        0.1446
     16 C          10.7938   40.0054   10.5730 C.3     1  UNL1        0.0914
     17 C          10.2481   41.4024   10.8182 C.3     1  UNL1        0.0281
     18 C           8.8609   41.3320   11.4356 C.3     1  UNL1        0.0543
     19 C           7.8361   41.9203   10.5244 C.ar    1  UNL1        0.0876
     20 C           5.8190   42.2552    9.6007 C.ar    1  UNL1        0.0615
     21 C           4.3531   42.0537    9.4336 C.3     1  UNL1        0.0523
     22 C           6.5709   43.1248    8.8174 C.ar    1  UNL1        0.0222
     23 C           6.0658   43.9816    7.7091 C.3     1  UNL1        0.0394
     24 N           6.5265   41.5842   10.5477 N.ar    1  UNL1       -0.2473
     25 S           8.1714   43.0516    9.3251 S.2     1  UNL1       -0.0755
@<TRIPOS>BOND
     1    14    15    1
     2    15    13    1
     3    12    13    1
     4    12    10    1
     5     8     3    1
     6     8     9   ar
     7     1     4   am
     8    16     4    1
     9    16    17    1
    10    17    18    1
    11    18    19    1
    12    19    25   ar
    13    20    24   ar
    14    21    20    1
    15    22    25   ar
    16    23    22    1
    17    10     7   ar
    18    10    11   ar
    19     3     1   am
    20     7     8   ar
    21     1     2    2
    22    19    24   ar
    23    20    22   ar
    24     9    11   ar
    25     3     5    1
    26     4     6    1
@<TRIPOS>MOLECULE
MolPort-029-896-536 96149094 CSSS00159654518 MCULE-9308766807 PubChem-72885521 ZINC000096149094 ZINC96149094
 25 26 0 0 0
SMALL
GASTEIGER

@<TRIPOS>ATOM
      1 C          17.1552   40.6599    9.5102 C.2     1  UNL1        0.3045
      2 O          16.0488   40.2700    9.0473 O.2     1  UNL1       -0.2525
      3 N          17.7233   41.9071    9.0964 N.am    1  UNL1       -0.2657
      4 N          17.8615   39.8549   10.4561 N.am    1  UNL1       -0.2887
      5 H          18.5908   42.1600    9.4871 H       1  UNL1        0.1565
      6 H          18.7329   40.1713   10.7874 H       1  UNL1        0.1510
      7 C          15.8608   42.7062    7.6502 C.ar    1  UNL1        0.1141
      8 C          17.1338   42.8170    8.1613 C.ar    1  UNL1        0.0917
      9 C          17.7132   43.9466    7.6123 C.ar    1  UNL1        0.1364
     10 N          15.7097   43.7517    6.8179 N.ar    1  UNL1       -0.2187
     11 N          16.8016   44.4990    6.7882 N.ar    1  UNL1       -0.1641
     12 C          14.5094   44.0547    6.0578 C.3     1  UNL1        0.2733
     13 O          13.3850   43.5991    6.7474 O.3     1  UNL1       -0.3311
     14 C          12.4537   41.4221    6.9410 C.3     1  UNL1        0.0347
     15 C          12.9355   42.5092    6.0035 C.3     1  UNL1        0.1446
     16 C          17.3460   38.5868   10.9499 C.3     1  UNL1        0.0914
     17 C          16.1404   38.8264   11.8435 C.3     1  UNL1        0.0281
     18 C          15.1203   37.7126   11.6722 C.3     1  UNL1        0.0543
     19 C          13.8933   38.2083   10.9828 C.ar    1  UNL1        0.0876
     20 C          12.2040   39.5981   10.4834 C.ar    1  UNL1        0.0615
     21 C          11.3995   40.8470   10.5855 C.3     1  UNL1        0.0523
     22 C          11.8877   38.5458    9.6303 C.ar    1  UNL1        0.0222
     23 C          10.7290   38.4785    8.6974 C.3     1  UNL1        0.0394
     24 N          13.3190   39.4059   11.2369 N.ar    1  UNL1       -0.2473
     25 S          13.0387   37.3367    9.8250 S.2     1  UNL1       -0.0755
@<TRIPOS>BOND
     1    14    15    1
     2    15    13    1
     3    12    13    1
     4    12    10    1
     5     8     3    1
     6     8     9   ar
     7     1     4   am
     8    16     4    1
     9    16    17    1
    10    17    18    1
    11    18    19    1
    12    19    25   ar
    13    20    24   ar
    14    21    20    1
    15    22    25   ar
    16    23    22    1
    17    10     7   ar
    18    10    11   ar
    19     3     1   am
    20     7     8   ar
    21     1     2    2
    22    19    24   ar
    23    20    22   ar
    24     9    11   ar
    25     3     5    1
    26     4     6    1
@<TRIPOS>MOLECULE
MolPort-029-896-536 96149094 CSSS00159654518 MCULE-9308766807 PubChem-72885521 ZINC000096149094 ZINC96149094
 25 26 0 0 0
SMALL
GASTEIGER

@<TRIPOS>ATOM
      1 C          12.5195   42.4939    6.2323 C.2     1  UNL1        0.3045
      2 O          12.7979   42.1690    7.4186 O.2     1  UNL1       -0.2525
      3 N          13.3989   43.3345    5.4778 N.am    1  UNL1       -0.2657
      4 N          11.3137   42.0270    5.6242 N.am    1  UNL1       -0.2887
      5 H          13.1300   43.5593    4.5578 H       1  UNL1        0.1565
      6 H          11.1087   42.3108    4.7041 H       1  UNL1        0.1510
      7 C          15.4805   43.2507    6.8412 C.ar    1  UNL1        0.1141
      8 C          14.6373   43.8754    5.9509 C.ar    1  UNL1        0.0917
      9 C          15.2050   45.0903    5.6118 C.ar    1  UNL1        0.1364
     10 N          16.5149   44.0923    7.0157 N.ar    1  UNL1       -0.2187
     11 N          16.3659   45.1880    6.2886 N.ar    1  UNL1       -0.1641
     12 C          17.6659   43.8447    7.8669 C.3     1  UNL1        0.2733
     13 O          17.3010   43.0123    8.9258 O.3     1  UNL1       -0.3311
     14 C          17.3182   40.7304    9.5867 C.3     1  UNL1        0.0347
     15 C          17.7108   41.7404    8.5290 C.3     1  UNL1        0.1446
     16 C          10.3762   41.1494    6.3088 C.3     1  UNL1        0.0914
     17 C           9.1784   41.9463    6.7985 C.3     1  UNL1        0.0281
     18 C           8.0853   41.0142    7.2954 C.3     1  UNL1        0.0543
     19 C           6.9032   41.7832    7.7830 C.ar    1  UNL1        0.0876
     20 C           5.4950   43.5157    8.0067 C.ar    1  UNL1        0.0615
     21 C           4.9765   44.8857    7.7390 C.3     1  UNL1        0.0523
     22 C           4.8916   42.6221    8.8856 C.ar    1  UNL1        0.0222
     23 C           3.6618   42.8633    9.6898 C.3     1  UNL1        0.0394
     24 N           6.6159   43.0470    7.3971 N.ar    1  UNL1       -0.2473
     25 S           5.7887   41.2010    8.9009 S.2     1  UNL1       -0.0755
@<TRIPOS>BOND
     1    14    15    1
     2    15    13    1
     3    12    13    1
     4    12    10    1
     5     8     3    1
     6     8     9   ar
     7     1     4   am
     8    16     4    1
     9    16    17    1
    10    17    18    1
    11    18    19    1
    12    19    25   ar
    13    20    24   ar
    14    21    20    1
    15    22    25   ar
    16    23    22    1
    17    10     7   ar
    18    10    11   ar
    19     3     1   am
    20     7     8   ar
    21     1     2    2
    22    19    24   ar
    23    20    22   ar
    24     9    11   ar
    25     3     5    1
    26     4     6    1
@<TRIPOS>MOLECULE
MolPort-029-896-536 96149094 CSSS00159654518 MCULE-9308766807 PubChem-72885521 ZINC000096149094 ZINC96149094
 25 26 0 0 0
SMALL
GASTEIGER

@<TRIPOS>ATOM
      1 C          12.6918   42.0758    6.1627 C.2     1  UNL1        0.3045
      2 O          13.2191   41.5126    7.1603 O.2     1  UNL1       -0.2525
      3 N          13.3169   43.2056    5.5446 N.am    1  UNL1       -0.2657
      4 N          11.4544   41.5926    5.6364 N.am    1  UNL1       -0.2887
      5 H          12.8592   43.6081    4.7714 H       1  UNL1        0.1565
      6 H          11.0525   42.0616    4.8697 H       1  UNL1        0.1510
      7 C          15.4468   43.2258    6.8338 C.ar    1  UNL1        0.1141
      8 C          14.5529   43.7984    5.9580 C.ar    1  UNL1        0.0917
      9 C          15.0683   45.0207    5.5662 C.ar    1  UNL1        0.1364
     10 N          16.4587   44.1042    6.9482 N.ar    1  UNL1       -0.2187
     11 N          16.2485   45.1739    6.1979 N.ar    1  UNL1       -0.1641
     12 C          17.6464   43.9171    7.7636 C.3     1  UNL1        0.2733
     13 O          17.3320   43.1553    8.8898 O.3     1  UNL1       -0.3311
     14 C          17.0849   40.8661    9.4750 C.3     1  UNL1        0.0347
     15 C          17.7786   41.8715    8.5802 C.3     1  UNL1        0.1446
     16 C          10.7637   40.4360    6.1867 C.3     1  UNL1        0.0914
     17 C           9.3430   40.8122    6.5733 C.3     1  UNL1        0.0281
     18 C           9.1920   40.8406    8.0855 C.3     1  UNL1        0.0543
     19 C          10.2042   39.9639    8.7438 C.ar    1  UNL1        0.0876
     20 C          11.9817   39.4155    9.9985 C.ar    1  UNL1        0.0615
     21 C          13.1356   39.6752   10.9032 C.3     1  UNL1        0.0523
     22 C          11.6275   38.1485    9.5465 C.ar    1  UNL1        0.0222
     23 C          12.3125   36.8672    9.8728 C.3     1  UNL1        0.0394
     24 N          11.1895   40.4239    9.5476 N.ar    1  UNL1       -0.2473
     25 S          10.2812   38.2943    8.5510 S.2     1  UNL1       -0.0755
@<TRIPOS>BOND
     1    14    15    1
     2    15    13    1
     3    12    13    1
     4    12    10    1
     5     8     3    1
     6     8     9   ar
     7     1     4   am
     8    16     4    1
     9    16    17    1
    10    17    18    1
    11    18    19    1
    12    19    25   ar
    13    20    24   ar
    14    21    20    1
    15    22    25   ar
    16    23    22    1
    17    10     7   ar
    18    10    11   ar
    19     3     1   am
    20     7     8   ar
    21     1     2    2
    22    19    24   ar
    23    20    22   ar
    24     9    11   ar
    25     3     5    1
    26     4     6    1
@<TRIPOS>MOLECULE
MolPort-029-896-536 96149094 CSSS00159654518 MCULE-9308766807 PubChem-72885521 ZINC000096149094 ZINC96149094
 25 26 0 0 0
SMALL
GASTEIGER

@<TRIPOS>ATOM
      1 C          12.6235   42.1199    6.3042 C.2     1  UNL1        0.3045
      2 O          13.3361   41.3524    7.0066 O.2     1  UNL1       -0.2525
      3 N          13.1305   43.3801    5.8523 N.am    1  UNL1       -0.2657
      4 N          11.2918   41.7406    5.9519 N.am    1  UNL1       -0.2887
      5 H          12.5295   43.9406    5.3102 H       1  UNL1        0.1565
      6 H          10.7482   42.3656    5.4199 H       1  UNL1        0.1510
      7 C          15.2790   43.4264    7.1097 C.ar    1  UNL1        0.1141
      8 C          14.4397   43.8925    6.1236 C.ar    1  UNL1        0.0917
      9 C          15.0903   44.9202    5.4651 C.ar    1  UNL1        0.1364
     10 N          16.3931   44.1749    7.0240 N.ar    1  UNL1       -0.2187
     11 N          16.2960   45.0643    6.0489 N.ar    1  UNL1       -0.1641
     12 C          17.5693   44.0310    7.8645 C.3     1  UNL1        0.2733
     13 O          17.2877   43.1751    8.9301 O.3     1  UNL1       -0.3311
     14 C          17.2318   40.8591    9.4566 C.3     1  UNL1        0.0347
     15 C          17.7255   41.9236    8.4995 C.3     1  UNL1        0.1446
     16 C          10.7057   40.4685    6.3470 C.3     1  UNL1        0.0914
     17 C           9.1948   40.5987    6.4458 C.3     1  UNL1        0.0281
     18 C           8.8134   41.9478    7.0331 C.3     1  UNL1        0.0543
     19 C           8.3849   41.8133    8.4561 C.ar    1  UNL1        0.0876
     20 C           6.9879   41.5745   10.1956 C.ar    1  UNL1        0.0615
     21 C           5.6678   41.3932   10.8603 C.3     1  UNL1        0.0523
     22 C           8.1901   41.6814   10.8872 C.ar    1  UNL1        0.0222
     23 C           8.3700   41.6357   12.3647 C.3     1  UNL1        0.0394
     24 N           7.0994   41.6513    8.8431 N.ar    1  UNL1       -0.2473
     25 S           9.4316   41.8786    9.7717 S.2     1  UNL1       -0.0755
@<TRIPOS>BOND
     1    14    15    1
     2    15    13    1
     3    12    13    1
     4    12    10    1
     5     8     3    1
     6     8     9   ar
     7     1     4   am
     8    16     4    1
     9    16    17    1
    10    17    18    1
    11    18    19    1
    12    19    25   ar
    13    20    24   ar
    14    21    20    1
    15    22    25   ar
    16    23    22    1
    17    10     7   ar
    18    10    11   ar
    19     3     1   am
    20     7     8   ar
    21     1     2    2
    22    19    24   ar
    23    20    22   ar
    24     9    11   ar
    25     3     5    1
    26     4     6    1
@<TRIPOS>MOLECULE
MolPort-029-896-536 96149094 CSSS00159654518 MCULE-9308766807 PubChem-72885521 ZINC000096149094 ZINC96149094
 25 26 0 0 0
SMALL
GASTEIGER

@<TRIPOS>ATOM
      1 C          11.4449   39.0489    8.9633 C.2     1  UNL1        0.3045
      2 O          12.3011   39.0288    8.0376 O.2     1  UNL1       -0.2525
      3 N          11.7139   38.4244   10.2230 N.am    1  UNL1       -0.2657
      4 N          10.1868   39.6960    8.7636 N.am    1  UNL1       -0.2887
      5 H          11.0084   38.4675   10.9083 H       1  UNL1        0.1565
      6 H           9.5271   39.6807    9.4943 H       1  UNL1        0.1510
      7 C          14.1175   38.3588   10.8691 C.ar    1  UNL1        0.1141
      8 C          12.9244   37.7422   10.5685 C.ar    1  UNL1        0.0917
      9 C          13.1181   36.3761   10.6649 C.ar    1  UNL1        0.1364
     10 N          14.9856   37.3654   11.1306 N.ar    1  UNL1       -0.2187
     11 N          14.4043   36.1820   11.0162 N.ar    1  UNL1       -0.1641
     12 C          16.3762   37.5426   11.5117 C.3     1  UNL1        0.2733
     13 O          17.2031   36.8700   10.6111 O.3     1  UNL1       -0.3311
     14 C          17.8650   39.1474   10.7507 C.3     1  UNL1        0.0347
     15 C          18.2822   37.7307   10.4161 C.3     1  UNL1        0.1446
     16 C           9.8401   40.3767    7.5250 C.3     1  UNL1        0.0914
     17 C          10.5813   41.7001    7.4322 C.3     1  UNL1        0.0281
     18 C          11.4157   41.7558    6.1629 C.3     1  UNL1        0.0543
     19 C          12.7656   42.3323    6.4313 C.ar    1  UNL1        0.0876
     20 C          14.4851   43.7654    6.2771 C.ar    1  UNL1        0.0615
     21 C          15.1976   44.9831    5.8008 C.3     1  UNL1        0.0523
     22 C          15.0451   42.8370    7.1486 C.ar    1  UNL1        0.0222
     23 C          16.4096   42.8893    7.7427 C.3     1  UNL1        0.0394
     24 N          13.2176   43.4801    5.8774 N.ar    1  UNL1       -0.2473
     25 S          13.9195   41.6206    7.4277 S.2     1  UNL1       -0.0755
@<TRIPOS>BOND
     1    14    15    1
     2    15    13    1
     3    12    13    1
     4    12    10    1
     5     8     3    1
     6     8     9   ar
     7     1     4   am
     8    16     4    1
     9    16    17    1
    10    17    18    1
    11    18    19    1
    12    19    25   ar
    13    20    24   ar
    14    21    20    1
    15    22    25   ar
    16    23    22    1
    17    10     7   ar
    18    10    11   ar
    19     3     1   am
    20     7     8   ar
    21     1     2    2
    22    19    24   ar
    23    20    22   ar
    24     9    11   ar
    25     3     5    1
    26     4     6    1
@<TRIPOS>MOLECULE
MolPort-029-896-536 96149094 CSSS00159654518 MCULE-9308766807 PubChem-72885521 ZINC000096149094 ZINC96149094
 25 26 0 0 0
SMALL
GASTEIGER

@<TRIPOS>ATOM
      1 C          10.2912   41.7670    6.4185 C.2     1  UNL1        0.3045
      2 O          10.2627   41.8378    7.6773 O.2     1  UNL1       -0.2525
      3 N          11.5182   41.9452    5.7029 N.am    1  UNL1       -0.2657
      4 N           9.0913   41.5104    5.6864 N.am    1  UNL1       -0.2887
      5 H          11.4815   41.8833    4.7210 H       1  UNL1        0.1565
      6 H           9.1357   41.4800    4.7034 H       1  UNL1        0.1510
      7 C          13.5783   43.3048    6.0287 C.ar    1  UNL1        0.1141
      8 C          12.7943   42.2061    6.2973 C.ar    1  UNL1        0.0917
      9 C          13.4602   41.4284    7.2273 C.ar    1  UNL1        0.1364
     10 N          14.6792   43.1616    6.7879 N.ar    1  UNL1       -0.2187
     11 N          14.6209   42.0526    7.5076 N.ar    1  UNL1       -0.1641
     12 C          15.7891   44.0972    6.8445 C.3     1  UNL1        0.2733
     13 O          16.3754   44.2128    5.5834 O.3     1  UNL1       -0.3311
     14 C          18.0173   43.9470    7.2798 C.3     1  UNL1        0.0347
     15 C          17.7219   43.9204    5.7948 C.3     1  UNL1        0.1446
     16 C           7.8064   41.2922    6.3338 C.3     1  UNL1        0.0914
     17 C           6.9505   42.5435    6.2290 C.3     1  UNL1        0.0281
     18 C           7.1443   43.4257    7.4515 C.3     1  UNL1        0.0543
     19 C           6.7388   42.7136    8.6985 C.ar    1  UNL1        0.0876
     20 C           6.9608   41.7655   10.7200 C.ar    1  UNL1        0.0615
     21 C           7.6877   41.3526   11.9523 C.3     1  UNL1        0.0523
     22 C           5.6136   41.5011   10.4956 C.ar    1  UNL1        0.0222
     23 C           4.6862   40.7832   11.4132 C.3     1  UNL1        0.0394
     24 N           7.5848   42.4376    9.7168 N.ar    1  UNL1       -0.2473
     25 S           5.1898   42.1276    8.9948 S.2     1  UNL1       -0.0755
@<TRIPOS>BOND
     1    14    15    1
     2    15    13    1
     3    12    13    1
     4    12    10    1
     5     8     3    1
     6     8     9   ar
     7     1     4   am
     8    16     4    1
     9    16    17    1
    10    17    18    1
    11    18    19    1
    12    19    25   ar
    13    20    24   ar
    14    21    20    1
    15    22    25   ar
    16    23    22    1
    17    10     7   ar
    18    10    11   ar
    19     3     1   am
    20     7     8   ar
    21     1     2    2
    22    19    24   ar
    23    20    22   ar
    24     9    11   ar
    25     3     5    1
    26     4     6    1
@<TRIPOS>MOLECULE
MolPort-029-896-536 96149094 CSSS00159654518 MCULE-9308766807 PubChem-72885521 ZINC000096149094 ZINC96149094
 25 26 0 0 0
SMALL
GASTEIGER

@<TRIPOS>ATOM
      1 C           8.4958   42.1405    6.9882 C.2     1  UNL1        0.3045
      2 O           8.2622   41.2502    7.8503 O.2     1  UNL1       -0.2525
      3 N           7.6554   43.2944    6.8812 N.am    1  UNL1       -0.2657
      4 N           9.6067   42.0057    6.0999 N.am    1  UNL1       -0.2887
      5 H           7.8823   43.9557    6.1880 H       1  UNL1        0.1565
      6 H           9.7565   42.7040    5.4222 H       1  UNL1        0.1510
      7 C           5.9532   42.6795    8.5909 C.ar    1  UNL1        0.1141
      8 C           6.5121   43.5662    7.6992 C.ar    1  UNL1        0.0917
      9 C           5.7761   44.7362    7.7484 C.ar    1  UNL1        0.1364
     10 N           4.9104   43.3254    9.1424 N.ar    1  UNL1       -0.2187
     11 N           4.7955   44.5498    8.6534 N.ar    1  UNL1       -0.1641
     12 C           4.0259   42.7809   10.1581 C.3     1  UNL1        0.2733
     13 O           2.8076   42.4205    9.5807 O.3     1  UNL1       -0.3311
     14 C           3.6728   40.4518   10.5907 C.3     1  UNL1        0.0347
     15 C           2.8836   41.0359    9.4379 C.3     1  UNL1        0.1446
     16 C          10.5261   40.8790    6.1553 C.3     1  UNL1        0.0914
     17 C          11.9613   41.3728    6.0801 C.3     1  UNL1        0.0281
     18 C          12.5786   41.4300    7.4679 C.3     1  UNL1        0.0543
     19 C          13.9465   42.0246    7.4242 C.ar    1  UNL1        0.0876
     20 C          16.1149   42.2973    7.9324 C.ar    1  UNL1        0.0615
     21 C          17.3984   41.9779    8.6164 C.3     1  UNL1        0.0523
     22 C          15.9599   43.3529    7.0398 C.ar    1  UNL1        0.0222
     23 C          17.0108   44.3210    6.6206 C.3     1  UNL1        0.0394
     24 N          14.9919   41.5619    8.1465 N.ar    1  UNL1       -0.2473
     25 S          14.3677   43.3671    6.5017 S.2     1  UNL1       -0.0755
@<TRIPOS>BOND
     1    14    15    1
     2    15    13    1
     3    12    13    1
     4    12    10    1
     5     8     3    1
     6     8     9   ar
     7     1     4   am
     8    16     4    1
     9    16    17    1
    10    17    18    1
    11    18    19    1
    12    19    25   ar
    13    20    24   ar
    14    21    20    1
    15    22    25   ar
    16    23    22    1
    17    10     7   ar
    18    10    11   ar
    19     3     1   am
    20     7     8   ar
    21     1     2    2
    22    19    24   ar
    23    20    22   ar
    24     9    11   ar
    25     3     5    1
    26     4     6    1
@<TRIPOS>MOLECULE
MolPort-029-896-536 96149094 CSSS00159654518 MCULE-9308766807 PubChem-72885521 ZINC000096149094 ZINC96149094
 25 26 0 0 0
SMALL
GASTEIGER

@<TRIPOS>ATOM
      1 C          10.7522   40.8482    5.7533 C.2     1  UNL1        0.3045
      2 O          11.3322   39.8143    6.1835 O.2     1  UNL1       -0.2525
      3 N          11.4018   42.1232    5.7956 N.am    1  UNL1       -0.2657
      4 N           9.4302   40.7598    5.2187 N.am    1  UNL1       -0.2887
      5 H          10.9009   42.8970    5.4498 H       1  UNL1        0.1565
      6 H           8.9908   41.5842    4.9078 H       1  UNL1        0.1510
      7 C          13.5117   43.4359    5.9502 C.ar    1  UNL1        0.1141
      8 C          12.7199   42.3658    6.2993 C.ar    1  UNL1        0.0917
      9 C          13.4252   41.5957    7.2063 C.ar    1  UNL1        0.1364
     10 N          14.6557   43.2837    6.6409 N.ar    1  UNL1       -0.2187
     11 N          14.6168   42.1961    7.3939 N.ar    1  UNL1       -0.1641
     12 C          15.7897   44.1908    6.5998 C.3     1  UNL1        0.2733
     13 O          16.5069   43.9985    5.4182 O.3     1  UNL1       -0.3311
     14 C          17.9119   44.0140    7.3339 C.3     1  UNL1        0.0347
     15 C          17.8274   43.8322    5.8330 C.3     1  UNL1        0.1446
     16 C           8.7062   39.5017    5.1147 C.3     1  UNL1        0.0914
     17 C           7.8465   39.2910    6.3500 C.3     1  UNL1        0.0281
     18 C           6.8267   40.4099    6.4867 C.3     1  UNL1        0.0543
     19 C           7.3415   41.5029    7.3624 C.ar    1  UNL1        0.0876
     20 C           8.5682   42.4824    8.9657 C.ar    1  UNL1        0.0615
     21 C           9.5928   42.5407   10.0446 C.3     1  UNL1        0.0523
     22 C           7.8128   43.5782    8.5610 C.ar    1  UNL1        0.0222
     23 C           7.8881   44.9593    9.1127 C.3     1  UNL1        0.0394
     24 N           8.3014   41.3283    8.2988 N.ar    1  UNL1       -0.2473
     25 S           6.7783   43.0880    7.3305 S.2     1  UNL1       -0.0755
@<TRIPOS>BOND
     1    14    15    1
     2    15    13    1
     3    12    13    1
     4    12    10    1
     5     8     3    1
     6     8     9   ar
     7     1     4   am
     8    16     4    1
     9    16    17    1
    10    17    18    1
    11    18    19    1
    12    19    25   ar
    13    20    24   ar
    14    21    20    1
    15    22    25   ar
    16    23    22    1
    17    10     7   ar
    18    10    11   ar
    19     3     1   am
    20     7     8   ar
    21     1     2    2
    22    19    24   ar
    23    20    22   ar
    24     9    11   ar
    25     3     5    1
    26     4     6    1
@<TRIPOS>MOLECULE
MolPort-029-896-536 96149094 CSSS00159654518 MCULE-9308766807 PubChem-72885521 ZINC000096149094 ZINC96149094
 25 26 0 0 0
SMALL
GASTEIGER

@<TRIPOS>ATOM
      1 C          11.3787   40.2697   10.7725 C.2     1  UNL1        0.3045
      2 O          10.8292   39.5562    9.8897 O.2     1  UNL1       -0.2525
      3 N          10.6062   41.1770   11.5658 N.am    1  UNL1       -0.2657
      4 N          12.7882   40.1836   10.9904 N.am    1  UNL1       -0.2887
      5 H          11.0876   41.7120   12.2376 H       1  UNL1        0.1565
      6 H          13.1968   40.7655   11.6713 H       1  UNL1        0.1510
      7 C           8.5335   41.7824   10.3263 C.ar    1  UNL1        0.1141
      8 C           9.1914   41.3706   11.4628 C.ar    1  UNL1        0.0917
      9 C           8.2457   41.1843   12.4549 C.ar    1  UNL1        0.1364
     10 N           7.2313   41.8363   10.6580 N.ar    1  UNL1       -0.2187
     11 N           7.0455   41.4804   11.9190 N.ar    1  UNL1       -0.1641
     12 C           6.1505   42.2114    9.7627 C.3     1  UNL1        0.2733
     13 O           5.6389   41.0743    9.1360 O.3     1  UNL1       -0.3311
     14 C           3.8270   40.5044   10.5630 C.3     1  UNL1        0.0347
     15 C           4.2569   41.1861    9.2811 C.3     1  UNL1        0.1446
     16 C          13.6447   39.2712   10.2475 C.3     1  UNL1        0.0914
     17 C          14.6139   40.0563    9.3794 C.3     1  UNL1        0.0281
     18 C          13.9065   40.6009    8.1492 C.3     1  UNL1        0.0543
     19 C          14.5905   41.8220    7.6318 C.ar    1  UNL1        0.0876
     20 C          16.2349   43.3201    7.3379 C.ar    1  UNL1        0.0615
     21 C          17.6008   43.8867    7.5122 C.3     1  UNL1        0.0523
     22 C          15.2395   43.9290    6.5805 C.ar    1  UNL1        0.0222
     23 C          15.3540   45.2118    5.8330 C.3     1  UNL1        0.0394
     24 N          15.8696   42.1493    7.9241 N.ar    1  UNL1       -0.2473
     25 S          13.8588   42.9729    6.6465 S.2     1  UNL1       -0.0755
@<TRIPOS>BOND
     1    14    15    1
     2    15    13    1
     3    12    13    1
     4    12    10    1
     5     8     3    1
     6     8     9   ar
     7     1     4   am
     8    16     4    1
     9    16    17    1
    10    17    18    1
    11    18    19    1
    12    19    25   ar
    13    20    24   ar
    14    21    20    1
    15    22    25   ar
    16    23    22    1
    17    10     7   ar
    18    10    11   ar
    19     3     1   am
    20     7     8   ar
    21     1     2    2
    22    19    24   ar
    23    20    22   ar
    24     9    11   ar
    25     3     5    1
    26     4     6    1
