@<TRIPOS>MOLECULE
MolPort-020-292-454 MCULE-7428069352 PubChem-110264922
 33 36 0 0 0
SMALL
GASTEIGER

@<TRIPOS>ATOM
      1 C          13.0359   39.1888    9.5111 C.3     1  UNL1        0.0563
      2 C          13.0701   39.8010   10.9048 C.3     1  UNL1        0.0087
      3 C          13.9544   38.9548   11.8057 C.3     1  UNL1        0.0178
      4 C          15.3570   38.8459   11.1998 C.3     1  UNL1        0.0725
      5 C          14.4597   39.0602    8.9548 C.3     1  UNL1        0.0784
      6 N          15.3421   38.2861    9.8389 N.3     1  UNL1       -0.2647
      7 C           8.5584   40.5734    7.9393 C.3     1  UNL1        0.0521
      8 C          10.0371   40.6770    7.8384 C.ar    1  UNL1        0.0602
      9 C          10.6136   41.5335    6.8990 C.ar    1  UNL1        0.0294
     10 C          12.0087   41.6261    6.8101 C.ar    1  UNL1        0.0528
     11 C          12.7970   40.8552    7.6680 C.ar    1  UNL1        0.0294
     12 C          12.1870   40.0076    8.5964 C.ar    1  UNL1        0.0608
     13 N          10.8278   39.9380    8.6613 N.ar    1  UNL1       -0.2539
     14 N          12.6585   42.4886    5.8660 N.pl3   1  UNL1       -0.2825
     15 H          12.2298   42.5705    4.9835 H       1  UNL1        0.1551
     16 C          13.8610   43.2453    6.0605 C.ar    1  UNL1        0.2207
     17 C          15.1294   45.2222    5.7588 C.ar    1  UNL1        0.1034
     18 C          16.1940   44.6602    6.4603 C.ar    1  UNL1        0.0414
     19 C          16.0492   43.3653    6.9544 C.ar    1  UNL1        0.1034
     20 N          13.9881   44.5096    5.5719 N.ar    1  UNL1       -0.2120
     21 N          14.8918   42.6846    6.7470 N.ar    1  UNL1       -0.2120
     22 C          14.9135   36.8897    9.8678 C.3     1  UNL1        0.1587
     23 C          15.8021   36.0609    9.0057 C.2     1  UNL1        0.2425
     24 N          15.3461   35.6528    7.7090 N.am    1  UNL1       -0.2828
     25 O          16.9370   35.7251    9.4355 O.2     1  UNL1       -0.2733
     26 H          14.4413   35.9407    7.4486 H       1  UNL1        0.1549
     27 C          16.0714   34.8687    6.7522 C.ar    1  UNL1        0.0505
     28 C          16.8529   35.4589    5.7467 C.ar    1  UNL1        0.0170
     29 C          17.5452   34.6621    4.8303 C.ar    1  UNL1        0.0309
     30 C          17.4607   33.2697    4.9127 C.ar    1  UNL1        0.1402
     31 C          16.6842   32.6753    5.9109 C.ar    1  UNL1        0.0309
     32 C          15.9923   33.4734    6.8269 C.ar    1  UNL1        0.0170
     33 F          18.1314   32.4966    4.0256 F       1  UNL1       -0.2042
@<TRIPOS>BOND
     1     7     8    1
     2     8    13   ar
     3     9    10   ar
     4    10    14    1
     5    11    12   ar
     6     1    12    1
     7     1     2    1
     8     2     3    1
     9     3     4    1
    10     4     6    1
    11     5     6    1
    12     5     1    1
    13    22     6    1
    14    22    23    1
    15    23    24   am
    16    28    29   ar
    17    30    31   ar
    18    30    33    1
    19    32    27   ar
    20    16    21   ar
    21    17    20   ar
    22    18    19   ar
    23    24    27    1
    24    14    16    1
    25     8     9   ar
    26    10    11   ar
    27    12    13   ar
    28    23    25    2
    29    27    28   ar
    30    29    30   ar
    31    31    32   ar
    32    16    20   ar
    33    17    18   ar
    34    19    21   ar
    35    24    26    1
    36    14    15    1
@<TRIPOS>MOLECULE
MolPort-020-292-454 MCULE-7428069352 PubChem-110264922
 33 36 0 0 0
SMALL
GASTEIGER

@<TRIPOS>ATOM
      1 C           9.4223   41.5585    7.7328 C.3     1  UNL1        0.0563
      2 C           8.5927   40.3320    8.0872 C.3     1  UNL1        0.0087
      3 C           7.1539   40.5532    7.6507 C.3     1  UNL1        0.0178
      4 C           7.1087   40.8537    6.1495 C.3     1  UNL1        0.0725
      5 C           9.3205   41.8499    6.2302 C.3     1  UNL1        0.0784
      6 N           7.9312   42.0172    5.7817 N.3     1  UNL1       -0.2647
      7 C          12.7534   39.8760   10.9746 C.3     1  UNL1        0.0521
      8 C          12.4514   40.5574    9.6892 C.ar    1  UNL1        0.0602
      9 C          13.4937   41.0044    8.8753 C.ar    1  UNL1        0.0294
     10 C          13.2011   41.6456    7.6646 C.ar    1  UNL1        0.0528
     11 C          11.8656   41.8248    7.2959 C.ar    1  UNL1        0.0294
     12 C          10.8468   41.3654    8.1346 C.ar    1  UNL1        0.0608
     13 N          11.1604   40.7446    9.3063 N.ar    1  UNL1       -0.2539
     14 N          14.2287   42.1257    6.7866 N.pl3   1  UNL1       -0.2825
     15 H          14.0596   42.0258    5.8219 H       1  UNL1        0.1551
     16 C          15.4742   42.7345    7.1532 C.ar    1  UNL1        0.2207
     17 C          17.0656   44.4749    6.9371 C.ar    1  UNL1        0.1034
     18 C          17.8783   43.8662    7.8913 C.ar    1  UNL1        0.0414
     19 C          17.4448   42.6714    8.4626 C.ar    1  UNL1        0.1034
     20 N          15.8848   43.9023    6.5864 N.ar    1  UNL1       -0.2120
     21 N          16.2572   42.1298    8.0857 N.ar    1  UNL1       -0.2120
     22 C           7.3694   43.2386    6.3538 C.3     1  UNL1        0.1587
     23 C           6.8519   42.9733    7.7255 C.2     1  UNL1        0.2425
     24 N           5.5336   42.4339    7.8900 N.am    1  UNL1       -0.2828
     25 O           7.5795   43.2365    8.7189 O.2     1  UNL1       -0.2733
     26 H           5.0185   42.2688    7.0674 H       1  UNL1        0.1549
     27 C           4.8878   42.1100    9.1287 C.ar    1  UNL1        0.0505
     28 C           5.5388   41.3857   10.1394 C.ar    1  UNL1        0.0170
     29 C           4.8766   41.0871   11.3337 C.ar    1  UNL1        0.0309
     30 C           3.5588   41.5104   11.5255 C.ar    1  UNL1        0.1402
     31 C           2.9042   42.2315   10.5234 C.ar    1  UNL1        0.0309
     32 C           3.5677   42.5295    9.3294 C.ar    1  UNL1        0.0170
     33 F           2.9162   41.2221   12.6825 F       1  UNL1       -0.2042
@<TRIPOS>BOND
     1     7     8    1
     2     8    13   ar
     3     9    10   ar
     4    10    14    1
     5    11    12   ar
     6     1    12    1
     7     1     2    1
     8     2     3    1
     9     3     4    1
    10     4     6    1
    11     5     6    1
    12     5     1    1
    13    22     6    1
    14    22    23    1
    15    23    24   am
    16    28    29   ar
    17    30    31   ar
    18    30    33    1
    19    32    27   ar
    20    16    21   ar
    21    17    20   ar
    22    18    19   ar
    23    24    27    1
    24    14    16    1
    25     8     9   ar
    26    10    11   ar
    27    12    13   ar
    28    23    25    2
    29    27    28   ar
    30    29    30   ar
    31    31    32   ar
    32    16    20   ar
    33    17    18   ar
    34    19    21   ar
    35    24    26    1
    36    14    15    1
@<TRIPOS>MOLECULE
MolPort-020-292-454 MCULE-7428069352 PubChem-110264922
 33 36 0 0 0
SMALL
GASTEIGER

@<TRIPOS>ATOM
      1 C          12.2420   39.5000    9.4045 C.3     1  UNL1        0.0563
      2 C          11.8917   38.0323    9.2014 C.3     1  UNL1        0.0087
      3 C          10.3916   37.8950    9.0004 C.3     1  UNL1        0.0178
      4 C           9.9479   38.7534    7.8119 C.3     1  UNL1        0.0725
      5 C          11.7477   40.3314    8.2139 C.3     1  UNL1        0.0784
      6 N          10.3067   40.1713    7.9745 N.3     1  UNL1       -0.2647
      7 C          16.4711   38.0778   11.5325 C.3     1  UNL1        0.0521
      8 C          15.7486   38.9894   10.6080 C.ar    1  UNL1        0.0602
      9 C          16.4470   39.9862    9.9244 C.ar    1  UNL1        0.0294
     10 C          15.7589   40.8416    9.0542 C.ar    1  UNL1        0.0528
     11 C          14.3815   40.6780    8.8884 C.ar    1  UNL1        0.0294
     12 C          13.7134   39.6702    9.5886 C.ar    1  UNL1        0.0608
     13 N          14.4080   38.8520   10.4281 N.ar    1  UNL1       -0.2539
     14 N          16.4219   41.8832    8.3241 N.pl3   1  UNL1       -0.2825
     15 H          17.3902   41.9742    8.4768 H       1  UNL1        0.1551
     16 C          15.8356   42.8072    7.3973 C.ar    1  UNL1        0.2207
     17 C          15.8399   44.8950    6.2796 C.ar    1  UNL1        0.1034
     18 C          14.6701   44.5499    5.6058 C.ar    1  UNL1        0.0414
     19 C          14.1049   43.3020    5.8606 C.ar    1  UNL1        0.1034
     20 N          16.3992   44.0232    7.1585 N.ar    1  UNL1       -0.2120
     21 N          14.6943   42.4575    6.7468 N.ar    1  UNL1       -0.2120
     22 C           9.5524   40.7638    9.0766 C.3     1  UNL1        0.1587
     23 C           8.5170   41.6959    8.5488 C.2     1  UNL1        0.2425
     24 N           7.2840   41.8580    9.2625 N.am    1  UNL1       -0.2828
     25 O           8.7396   42.3196    7.4778 O.2     1  UNL1       -0.2733
     26 H           7.1759   41.3251   10.0833 H       1  UNL1        0.1549
     27 C           6.1920   42.7158    8.9046 C.ar    1  UNL1        0.0505
     28 C           6.3584   43.8103    8.0417 C.ar    1  UNL1        0.0170
     29 C           5.2705   44.6256    7.7164 C.ar    1  UNL1        0.0309
     30 C           4.0091   44.3526    8.2518 C.ar    1  UNL1        0.1402
     31 C           3.8362   43.2649    9.1118 C.ar    1  UNL1        0.0309
     32 C           4.9250   42.4501    9.4364 C.ar    1  UNL1        0.0170
     33 F           2.9541   45.1416    7.9369 F       1  UNL1       -0.2042
@<TRIPOS>BOND
     1     7     8    1
     2     8    13   ar
     3     9    10   ar
     4    10    14    1
     5    11    12   ar
     6     1    12    1
     7     1     2    1
     8     2     3    1
     9     3     4    1
    10     4     6    1
    11     5     6    1
    12     5     1    1
    13    22     6    1
    14    22    23    1
    15    23    24   am
    16    28    29   ar
    17    30    31   ar
    18    30    33    1
    19    32    27   ar
    20    16    21   ar
    21    17    20   ar
    22    18    19   ar
    23    24    27    1
    24    14    16    1
    25     8     9   ar
    26    10    11   ar
    27    12    13   ar
    28    23    25    2
    29    27    28   ar
    30    29    30   ar
    31    31    32   ar
    32    16    20   ar
    33    17    18   ar
    34    19    21   ar
    35    24    26    1
    36    14    15    1
@<TRIPOS>MOLECULE
MolPort-020-292-454 MCULE-7428069352 PubChem-110264922
 33 36 0 0 0
SMALL
GASTEIGER

@<TRIPOS>ATOM
      1 C          11.6073   40.2626    8.0059 C.3     1  UNL1        0.0563
      2 C          11.8993   40.3052    6.5122 C.3     1  UNL1        0.0087
      3 C          10.6016   40.5190    5.7507 C.3     1  UNL1        0.0178
      4 C           9.9245   41.8055    6.2328 C.3     1  UNL1        0.0725
      5 C          10.8952   41.5492    8.4425 C.3     1  UNL1        0.0784
      6 N           9.6632   41.7974    7.6809 N.3     1  UNL1       -0.2647
      7 C          14.0276   38.1299   11.7515 C.3     1  UNL1        0.0521
      8 C          14.0342   39.0464   10.5820 C.ar    1  UNL1        0.0602
      9 C          15.2083   39.7108   10.2233 C.ar    1  UNL1        0.0294
     10 C          15.2067   40.5729    9.1191 C.ar    1  UNL1        0.0528
     11 C          14.0241   40.7502    8.3970 C.ar    1  UNL1        0.0294
     12 C          12.8666   40.0699    8.7838 C.ar    1  UNL1        0.0608
     13 N          12.8970   39.2369    9.8617 N.ar    1  UNL1       -0.2539
     14 N          16.3817   41.2822    8.7021 N.pl3   1  UNL1       -0.2825
     15 H          17.2390   40.9510    9.0549 H       1  UNL1        0.1551
     16 C          16.4504   42.4186    7.8301 C.ar    1  UNL1        0.2207
     17 C          15.3976   44.0363    6.4579 C.ar    1  UNL1        0.1034
     18 C          16.6343   44.6042    6.1586 C.ar    1  UNL1        0.0414
     19 C          17.7750   44.0395    6.7256 C.ar    1  UNL1        0.1034
     20 N          15.3271   42.9598    7.2834 N.ar    1  UNL1       -0.2120
     21 N          17.6635   42.9628    7.5467 N.ar    1  UNL1       -0.2120
     22 C           8.6635   40.7846    8.0119 C.3     1  UNL1        0.1587
     23 C           7.6073   41.3701    8.8843 C.2     1  UNL1        0.2425
     24 N           6.3006   40.7802    8.9030 N.am    1  UNL1       -0.2828
     25 O           7.8788   42.3806    9.5849 O.2     1  UNL1       -0.2733
     26 H           6.1593   40.0020    8.3167 H       1  UNL1        0.1549
     27 C           5.1781   41.2063    9.6872 C.ar    1  UNL1        0.0505
     28 C           4.9940   40.7836   11.0128 C.ar    1  UNL1        0.0170
     29 C           3.8864   41.2189   11.7462 C.ar    1  UNL1        0.0309
     30 C           2.9552   42.0796   11.1591 C.ar    1  UNL1        0.1402
     31 C           3.1320   42.5042    9.8396 C.ar    1  UNL1        0.0309
     32 C           4.2402   42.0681    9.1072 C.ar    1  UNL1        0.0170
     33 F           1.8819   42.5025   11.8688 F       1  UNL1       -0.2042
@<TRIPOS>BOND
     1     7     8    1
     2     8    13   ar
     3     9    10   ar
     4    10    14    1
     5    11    12   ar
     6     1    12    1
     7     1     2    1
     8     2     3    1
     9     3     4    1
    10     4     6    1
    11     5     6    1
    12     5     1    1
    13    22     6    1
    14    22    23    1
    15    23    24   am
    16    28    29   ar
    17    30    31   ar
    18    30    33    1
    19    32    27   ar
    20    16    21   ar
    21    17    20   ar
    22    18    19   ar
    23    24    27    1
    24    14    16    1
    25     8     9   ar
    26    10    11   ar
    27    12    13   ar
    28    23    25    2
    29    27    28   ar
    30    29    30   ar
    31    31    32   ar
    32    16    20   ar
    33    17    18   ar
    34    19    21   ar
    35    24    26    1
    36    14    15    1
@<TRIPOS>MOLECULE
MolPort-020-292-454 MCULE-7428069352 PubChem-110264922
 33 36 0 0 0
SMALL
GASTEIGER

@<TRIPOS>ATOM
      1 C          12.6619   39.4482    9.6863 C.3     1  UNL1        0.0563
      2 C          12.3604   38.0376    9.1991 C.3     1  UNL1        0.0087
      3 C          10.8555   37.8311    9.1523 C.3     1  UNL1        0.0178
      4 C          10.2154   38.8910    8.2507 C.3     1  UNL1        0.0725
      5 C          11.9727   40.4785    8.7825 C.3     1  UNL1        0.0784
      6 N          10.5223   40.2627    8.6864 N.3     1  UNL1       -0.2647
      7 C          17.1624   38.1176   11.2389 C.3     1  UNL1        0.0521
      8 C          16.2996   39.0518   10.4705 C.ar    1  UNL1        0.0602
      9 C          16.8696   40.1343    9.7982 C.ar    1  UNL1        0.0294
     10 C          16.0497   41.0106    9.0755 C.ar    1  UNL1        0.0528
     11 C          14.6720   40.7811    9.0429 C.ar    1  UNL1        0.0294
     12 C          14.1345   39.6882    9.7276 C.ar    1  UNL1        0.0608
     13 N          14.9558   38.8516   10.4221 N.ar    1  UNL1       -0.2539
     14 N          16.5773   42.1391    8.3644 N.pl3   1  UNL1       -0.2825
     15 H          17.5089   42.3850    8.5666 H       1  UNL1        0.1551
     16 C          15.9031   42.9500    7.3927 C.ar    1  UNL1        0.2207
     17 C          14.1324   43.2918    5.8578 C.ar    1  UNL1        0.1034
     18 C          14.6429   44.5462    5.5301 C.ar    1  UNL1        0.0414
     19 C          15.8061   44.9729    6.1678 C.ar    1  UNL1        0.1034
     20 N          14.7673   42.5198    6.7777 N.ar    1  UNL1       -0.2120
     21 N          16.4122   44.1719    7.0827 N.ar    1  UNL1       -0.2120
     22 C           9.8936   40.5396    9.9758 C.3     1  UNL1        0.1587
     23 C           8.8592   41.6013    9.8263 C.2     1  UNL1        0.2425
     24 N           7.6014   41.2801    9.2173 N.am    1  UNL1       -0.2828
     25 O           9.1115   42.7670   10.2301 O.2     1  UNL1       -0.2733
     26 H           7.4832   40.3515    8.9123 H       1  UNL1        0.1549
     27 C           6.4980   42.1714    9.0065 C.ar    1  UNL1        0.0505
     28 C           5.3229   42.0932    9.7701 C.ar    1  UNL1        0.0170
     29 C           4.2670   42.9786    9.5350 C.ar    1  UNL1        0.0309
     30 C           4.3785   43.9478    8.5347 C.ar    1  UNL1        0.1402
     31 C           5.5453   44.0311    7.7703 C.ar    1  UNL1        0.0309
     32 C           6.6007   43.1450    8.0065 C.ar    1  UNL1        0.0170
     33 F           3.3562   44.8065    8.3063 F       1  UNL1       -0.2042
@<TRIPOS>BOND
     1     7     8    1
     2     8    13   ar
     3     9    10   ar
     4    10    14    1
     5    11    12   ar
     6     1    12    1
     7     1     2    1
     8     2     3    1
     9     3     4    1
    10     4     6    1
    11     5     6    1
    12     5     1    1
    13    22     6    1
    14    22    23    1
    15    23    24   am
    16    28    29   ar
    17    30    31   ar
    18    30    33    1
    19    32    27   ar
    20    16    21   ar
    21    17    20   ar
    22    18    19   ar
    23    24    27    1
    24    14    16    1
    25     8     9   ar
    26    10    11   ar
    27    12    13   ar
    28    23    25    2
    29    27    28   ar
    30    29    30   ar
    31    31    32   ar
    32    16    20   ar
    33    17    18   ar
    34    19    21   ar
    35    24    26    1
    36    14    15    1
@<TRIPOS>MOLECULE
MolPort-020-292-454 MCULE-7428069352 PubChem-110264922
 33 36 0 0 0
SMALL
GASTEIGER

@<TRIPOS>ATOM
      1 C          11.1641   41.2362    9.2166 C.3     1  UNL1        0.0563
      2 C          11.4212   41.1528    7.7182 C.3     1  UNL1        0.0087
      3 C          12.7631   40.4827    7.4734 C.3     1  UNL1        0.0178
      4 C          12.7776   39.0984    8.1288 C.3     1  UNL1        0.0725
      5 C          11.2254   39.8370    9.8424 C.3     1  UNL1        0.0784
      6 N          12.4986   39.1545    9.5726 N.3     1  UNL1       -0.2647
      7 C           8.3122   45.2729    9.3035 C.3     1  UNL1        0.0521
      8 C           8.4688   43.8131    9.5323 C.ar    1  UNL1        0.0602
      9 C           7.3882   43.0599    9.9944 C.ar    1  UNL1        0.0294
     10 C           7.5435   41.6840   10.2073 C.ar    1  UNL1        0.0528
     11 C           8.7828   41.0923    9.9514 C.ar    1  UNL1        0.0294
     12 C           9.8436   41.8760    9.4900 C.ar    1  UNL1        0.0608
     13 N           9.6641   43.2120    9.2911 N.ar    1  UNL1       -0.2539
     14 N           6.4701   40.8582   10.6801 N.pl3   1  UNL1       -0.2825
     15 H           6.7252   39.9852   11.0570 H       1  UNL1        0.1551
     16 C           5.0680   41.1588   10.6666 C.ar    1  UNL1        0.2207
     17 C           3.1317   42.0303   11.7152 C.ar    1  UNL1        0.1034
     18 C           2.3683   41.7167   10.5926 C.ar    1  UNL1        0.0414
     19 C           3.0042   41.1142    9.5088 C.ar    1  UNL1        0.1034
     20 N           4.4603   41.7477   11.7330 N.ar    1  UNL1       -0.2120
     21 N           4.3352   40.8475    9.5646 N.ar    1  UNL1       -0.2120
     22 C          13.5842   39.8353   10.2745 C.3     1  UNL1        0.1587
     23 C          14.6197   40.2884    9.3040 C.2     1  UNL1        0.2425
     24 N          14.6977   41.6763    8.9523 N.am    1  UNL1       -0.2828
     25 O          15.4044   39.4414    8.8017 O.2     1  UNL1       -0.2733
     26 H          14.0405   42.2760    9.3739 H       1  UNL1        0.1549
     27 C          15.6338   42.2812    8.0499 C.ar    1  UNL1        0.0505
     28 C          17.0208   42.1817    8.2405 C.ar    1  UNL1        0.0170
     29 C          17.9031   42.7860    7.3404 C.ar    1  UNL1        0.0309
     30 C          17.4049   43.4942    6.2437 C.ar    1  UNL1        0.1402
     31 C          16.0251   43.5977    6.0479 C.ar    1  UNL1        0.0309
     32 C          15.1437   42.9929    6.9490 C.ar    1  UNL1        0.0170
     33 F          18.2588   44.0798    5.3705 F       1  UNL1       -0.2042
@<TRIPOS>BOND
     1     7     8    1
     2     8    13   ar
     3     9    10   ar
     4    10    14    1
     5    11    12   ar
     6     1    12    1
     7     1     2    1
     8     2     3    1
     9     3     4    1
    10     4     6    1
    11     5     6    1
    12     5     1    1
    13    22     6    1
    14    22    23    1
    15    23    24   am
    16    28    29   ar
    17    30    31   ar
    18    30    33    1
    19    32    27   ar
    20    16    21   ar
    21    17    20   ar
    22    18    19   ar
    23    24    27    1
    24    14    16    1
    25     8     9   ar
    26    10    11   ar
    27    12    13   ar
    28    23    25    2
    29    27    28   ar
    30    29    30   ar
    31    31    32   ar
    32    16    20   ar
    33    17    18   ar
    34    19    21   ar
    35    24    26    1
    36    14    15    1
@<TRIPOS>MOLECULE
MolPort-020-292-454 MCULE-7428069352 PubChem-110264922
 33 36 0 0 0
SMALL
GASTEIGER

@<TRIPOS>ATOM
      1 C          12.7810   39.4492   10.1638 C.3     1  UNL1        0.0563
      2 C          13.9586   39.5076   11.1271 C.3     1  UNL1        0.0087
      3 C          14.3192   38.0989   11.5688 C.3     1  UNL1        0.0178
      4 C          14.6323   37.2362   10.3425 C.3     1  UNL1        0.0725
      5 C          13.1181   38.5462    8.9705 C.3     1  UNL1        0.0784
      6 N          13.5175   37.1934    9.3829 N.3     1  UNL1       -0.2647
      7 C           9.9884   43.5034   10.6111 C.3     1  UNL1        0.0521
      8 C          11.0735   42.7696    9.9099 C.ar    1  UNL1        0.0602
      9 C          11.7341   43.3635    8.8332 C.ar    1  UNL1        0.0294
     10 C          12.7565   42.6655    8.1773 C.ar    1  UNL1        0.0528
     11 C          13.0946   41.3834    8.6173 C.ar    1  UNL1        0.0294
     12 C          12.4126   40.8186    9.6980 C.ar    1  UNL1        0.0608
     13 N          11.4227   41.5205   10.3177 N.ar    1  UNL1       -0.2539
     14 N          13.4715   43.2236    7.0661 N.pl3   1  UNL1       -0.2825
     15 H          12.9290   43.4952    6.2908 H       1  UNL1        0.1551
     16 C          14.8861   43.4312    6.9553 C.ar    1  UNL1        0.2207
     17 C          17.1120   42.8098    7.4722 C.ar    1  UNL1        0.1034
     18 C          17.5974   43.8720    6.7120 C.ar    1  UNL1        0.0414
     19 C          16.6776   44.7051    6.0783 C.ar    1  UNL1        0.1034
     20 N          15.7729   42.6088    7.5802 N.ar    1  UNL1       -0.2120
     21 N          15.3458   44.4713    6.2103 N.ar    1  UNL1       -0.2120
     22 C          12.3734   36.4942    9.9631 C.3     1  UNL1        0.1587
     23 C          11.1052   37.1742    9.5771 C.2     1  UNL1        0.2425
     24 N          11.0271   37.8612    8.3210 N.am    1  UNL1       -0.2828
     25 O          10.1248   37.1413   10.3666 O.2     1  UNL1       -0.2733
     26 H          11.8392   37.8569    7.7644 H       1  UNL1        0.1549
     27 C           9.8886   38.5540    7.7914 C.ar    1  UNL1        0.0505
     28 C           8.9526   37.9192    6.9601 C.ar    1  UNL1        0.0170
     29 C           7.8554   38.6274    6.4614 C.ar    1  UNL1        0.0309
     30 C           7.6867   39.9750    6.7900 C.ar    1  UNL1        0.1402
     31 C           8.6149   40.6134    7.6168 C.ar    1  UNL1        0.0309
     32 C           9.7118   39.9040    8.1150 C.ar    1  UNL1        0.0170
     33 F           6.6238   40.6621    6.3077 F       1  UNL1       -0.2042
@<TRIPOS>BOND
     1     7     8    1
     2     8    13   ar
     3     9    10   ar
     4    10    14    1
     5    11    12   ar
     6     1    12    1
     7     1     2    1
     8     2     3    1
     9     3     4    1
    10     4     6    1
    11     5     6    1
    12     5     1    1
    13    22     6    1
    14    22    23    1
    15    23    24   am
    16    28    29   ar
    17    30    31   ar
    18    30    33    1
    19    32    27   ar
    20    16    21   ar
    21    17    20   ar
    22    18    19   ar
    23    24    27    1
    24    14    16    1
    25     8     9   ar
    26    10    11   ar
    27    12    13   ar
    28    23    25    2
    29    27    28   ar
    30    29    30   ar
    31    31    32   ar
    32    16    20   ar
    33    17    18   ar
    34    19    21   ar
    35    24    26    1
    36    14    15    1
@<TRIPOS>MOLECULE
MolPort-020-292-454 MCULE-7428069352 PubChem-110264922
 33 36 0 0 0
SMALL
GASTEIGER

@<TRIPOS>ATOM
      1 C          10.2814   42.0946    9.7424 C.3     1  UNL1        0.0563
      2 C          10.0186   42.6507   11.1352 C.3     1  UNL1        0.0087
      3 C           8.6247   43.2546   11.1824 C.3     1  UNL1        0.0178
      4 C           7.5888   42.1969   10.7896 C.3     1  UNL1        0.0725
      5 C           9.2028   41.0693    9.3701 C.3     1  UNL1        0.0784
      6 N           7.8445   41.6232    9.4588 N.3     1  UNL1       -0.2647
      7 C          13.7114   39.0811   11.6371 C.3     1  UNL1        0.0521
      8 C          13.2900   40.0305   10.5746 C.ar    1  UNL1        0.0602
      9 C          14.1591   40.3328    9.5249 C.ar    1  UNL1        0.0294
     10 C          13.7545   41.2285    8.5266 C.ar    1  UNL1        0.0528
     11 C          12.4834   41.8029    8.6035 C.ar    1  UNL1        0.0294
     12 C          11.6389   41.4786    9.6683 C.ar    1  UNL1        0.0608
     13 N          12.0583   40.6037   10.6251 N.ar    1  UNL1       -0.2539
     14 N          14.6027   41.5772    7.4237 N.pl3   1  UNL1       -0.2825
     15 H          14.3885   41.1574    6.5593 H       1  UNL1        0.1551
     16 C          15.7270   42.4673    7.4360 C.ar    1  UNL1        0.2207
     17 C          16.8943   44.3332    6.5622 C.ar    1  UNL1        0.1034
     18 C          17.9091   44.1522    7.4997 C.ar    1  UNL1        0.0414
     19 C          17.7926   43.0983    8.4038 C.ar    1  UNL1        0.1034
     20 N          15.8272   43.4928    6.5463 N.ar    1  UNL1       -0.2120
     21 N          16.7098   42.2791    8.3563 N.ar    1  UNL1       -0.2120
     22 C           7.6537   42.6359    8.4230 C.3     1  UNL1        0.1587
     23 C           8.0154   42.0812    7.0884 C.2     1  UNL1        0.2425
     24 N           8.8482   40.9166    7.0107 N.am    1  UNL1       -0.2828
     25 O           7.5898   42.6515    6.0496 O.2     1  UNL1       -0.2733
     26 H           9.1551   40.5356    7.8650 H       1  UNL1        0.1549
     27 C           9.2805   40.2493    5.8172 C.ar    1  UNL1        0.0505
     28 C           8.6167   39.1189    5.3155 C.ar    1  UNL1        0.0170
     29 C           9.0680   38.4937    4.1495 C.ar    1  UNL1        0.0309
     30 C          10.1862   38.9941    3.4774 C.ar    1  UNL1        0.1402
     31 C          10.8522   40.1189    3.9714 C.ar    1  UNL1        0.0309
     32 C          10.3998   40.7433    5.1377 C.ar    1  UNL1        0.0170
     33 F          10.6241   38.3895    2.3473 F       1  UNL1       -0.2042
@<TRIPOS>BOND
     1     7     8    1
     2     8    13   ar
     3     9    10   ar
     4    10    14    1
     5    11    12   ar
     6     1    12    1
     7     1     2    1
     8     2     3    1
     9     3     4    1
    10     4     6    1
    11     5     6    1
    12     5     1    1
    13    22     6    1
    14    22    23    1
    15    23    24   am
    16    28    29   ar
    17    30    31   ar
    18    30    33    1
    19    32    27   ar
    20    16    21   ar
    21    17    20   ar
    22    18    19   ar
    23    24    27    1
    24    14    16    1
    25     8     9   ar
    26    10    11   ar
    27    12    13   ar
    28    23    25    2
    29    27    28   ar
    30    29    30   ar
    31    31    32   ar
    32    16    20   ar
    33    17    18   ar
    34    19    21   ar
    35    24    26    1
    36    14    15    1
@<TRIPOS>MOLECULE
MolPort-020-292-454 MCULE-7428069352 PubChem-110264922
 33 36 0 0 0
SMALL
GASTEIGER

@<TRIPOS>ATOM
      1 C          10.9135   39.6352    5.9535 C.3     1  UNL1        0.0563
      2 C          11.5151   38.9979    4.7085 C.3     1  UNL1        0.0087
      3 C          10.3996   38.4538    3.8314 C.3     1  UNL1        0.0178
      4 C           9.4240   39.5800    3.4766 C.3     1  UNL1        0.0725
      5 C           9.9143   40.7297    5.5572 C.3     1  UNL1        0.0784
      6 N           8.8560   40.2310    4.6679 N.3     1  UNL1       -0.2647
      7 C          13.7292   39.2960   10.0023 C.3     1  UNL1        0.0521
      8 C          13.3411   40.0356    8.7734 C.ar    1  UNL1        0.0602
      9 C          13.9781   41.2350    8.4509 C.ar    1  UNL1        0.0294
     10 C          13.6070   41.9263    7.2903 C.ar    1  UNL1        0.0528
     11 C          12.6021   41.3977    6.4765 C.ar    1  UNL1        0.0294
     12 C          11.9848   40.1949    6.8292 C.ar    1  UNL1        0.0608
     13 N          12.3662   39.5434    7.9636 N.ar    1  UNL1       -0.2539
     14 N          14.2256   43.1623    6.9066 N.pl3   1  UNL1       -0.2825
     15 H          13.6233   43.8663    6.5738 H       1  UNL1        0.1551
     16 C          15.6210   43.4897    6.9523 C.ar    1  UNL1        0.2207
     17 C          17.6172   43.8603    8.1712 C.ar    1  UNL1        0.1034
     18 C          18.3045   44.1242    6.9882 C.ar    1  UNL1        0.0414
     19 C          17.6009   44.0591    5.7872 C.ar    1  UNL1        0.1034
     20 N          16.2954   43.5495    8.1334 N.ar    1  UNL1       -0.2120
     21 N          16.2791   43.7448    5.7904 N.ar    1  UNL1       -0.2120
     22 C           7.9956   39.3004    5.3946 C.3     1  UNL1        0.1587
     23 C           8.1312   39.5141    6.8628 C.2     1  UNL1        0.2425
     24 N           7.7410   40.7710    7.4318 N.am    1  UNL1       -0.2828
     25 O           8.5955   38.5881    7.5788 O.2     1  UNL1       -0.2733
     26 H           7.4017   41.4519    6.8069 H       1  UNL1        0.1549
     27 C           7.7938   41.1391    8.8168 C.ar    1  UNL1        0.0505
     28 C           6.6326   41.2914    9.5903 C.ar    1  UNL1        0.0170
     29 C           6.7232   41.6526   10.9377 C.ar    1  UNL1        0.0309
     30 C           7.9753   41.8644   11.5207 C.ar    1  UNL1        0.1402
     31 C           9.1356   41.7149   10.7564 C.ar    1  UNL1        0.0309
     32 C           9.0436   41.3536    9.4090 C.ar    1  UNL1        0.0170
     33 F           8.0644   42.2140   12.8262 F       1  UNL1       -0.2042
@<TRIPOS>BOND
     1     7     8    1
     2     8    13   ar
     3     9    10   ar
     4    10    14    1
     5    11    12   ar
     6     1    12    1
     7     1     2    1
     8     2     3    1
     9     3     4    1
    10     4     6    1
    11     5     6    1
    12     5     1    1
    13    22     6    1
    14    22    23    1
    15    23    24   am
    16    28    29   ar
    17    30    31   ar
    18    30    33    1
    19    32    27   ar
    20    16    21   ar
    21    17    20   ar
    22    18    19   ar
    23    24    27    1
    24    14    16    1
    25     8     9   ar
    26    10    11   ar
    27    12    13   ar
    28    23    25    2
    29    27    28   ar
    30    29    30   ar
    31    31    32   ar
    32    16    20   ar
    33    17    18   ar
    34    19    21   ar
    35    24    26    1
    36    14    15    1
@<TRIPOS>MOLECULE
MolPort-020-292-454 MCULE-7428069352 PubChem-110264922
 33 36 0 0 0
SMALL
GASTEIGER

@<TRIPOS>ATOM
      1 C          13.5175   38.5531    8.9907 C.3     1  UNL1        0.0563
      2 C          13.8525   39.6169   10.0271 C.3     1  UNL1        0.0087
      3 C          12.7904   40.7034    9.9958 C.3     1  UNL1        0.0178
      4 C          11.4107   40.0860   10.2429 C.3     1  UNL1        0.0725
      5 C          12.1150   37.9872    9.2477 C.3     1  UNL1        0.0784
      6 N          11.0816   39.0318    9.2702 N.3     1  UNL1       -0.2647
      7 C          18.2054   37.0950    9.5684 C.3     1  UNL1        0.0521
      8 C          16.7867   36.7557    9.2860 C.ar    1  UNL1        0.0602
      9 C          16.4216   35.4302    9.0442 C.ar    1  UNL1        0.0294
     10 C          15.0819   35.1180    8.7792 C.ar    1  UNL1        0.0528
     11 C          14.1352   36.1452    8.7624 C.ar    1  UNL1        0.0294
     12 C          14.5351   37.4612    9.0081 C.ar    1  UNL1        0.0608
     13 N          15.8450   37.7360    9.2638 N.ar    1  UNL1       -0.2539
     14 N          14.6464   33.7753    8.5242 N.pl3   1  UNL1       -0.2825
     15 H          13.7092   33.5714    8.7464 H       1  UNL1        0.1551
     16 C          15.4199   32.6961    7.9826 C.ar    1  UNL1        0.2207
     17 C          16.3181   31.5238    6.1313 C.ar    1  UNL1        0.1034
     18 C          16.9166   30.6036    6.9895 C.ar    1  UNL1        0.0414
     19 C          16.7394   30.7681    8.3618 C.ar    1  UNL1        0.1034
     20 N          15.5844   32.5480    6.6393 N.ar    1  UNL1       -0.2120
     21 N          15.9984   31.8056    8.8315 N.ar    1  UNL1       -0.2120
     22 C          10.9250   39.6029    7.9346 C.3     1  UNL1        0.1587
     23 C          11.6918   40.8757    7.8262 C.2     1  UNL1        0.2425
     24 N          12.9224   40.8975    7.0906 N.am    1  UNL1       -0.2828
     25 O          11.2493   41.9102    8.3915 O.2     1  UNL1       -0.2733
     26 H          13.2121   40.0463    6.6898 H       1  UNL1        0.1549
     27 C          13.7748   42.0310    6.8782 C.ar    1  UNL1        0.0505
     28 C          15.0206   42.1536    7.5130 C.ar    1  UNL1        0.0170
     29 C          15.8241   43.2741    7.2826 C.ar    1  UNL1        0.0309
     30 C          15.3874   44.2797    6.4163 C.ar    1  UNL1        0.1402
     31 C          14.1480   44.1645    5.7812 C.ar    1  UNL1        0.0309
     32 C          13.3453   43.0433    6.0125 C.ar    1  UNL1        0.0170
     33 F          16.1652   45.3656    6.1919 F       1  UNL1       -0.2042
@<TRIPOS>BOND
     1     7     8    1
     2     8    13   ar
     3     9    10   ar
     4    10    14    1
     5    11    12   ar
     6     1    12    1
     7     1     2    1
     8     2     3    1
     9     3     4    1
    10     4     6    1
    11     5     6    1
    12     5     1    1
    13    22     6    1
    14    22    23    1
    15    23    24   am
    16    28    29   ar
    17    30    31   ar
    18    30    33    1
    19    32    27   ar
    20    16    21   ar
    21    17    20   ar
    22    18    19   ar
    23    24    27    1
    24    14    16    1
    25     8     9   ar
    26    10    11   ar
    27    12    13   ar
    28    23    25    2
    29    27    28   ar
    30    29    30   ar
    31    31    32   ar
    32    16    20   ar
    33    17    18   ar
    34    19    21   ar
    35    24    26    1
    36    14    15    1
