@<TRIPOS>MOLECULE
MolPort-008-363-374 MolPort-047-536-103 CSSS00160416724 MCULE-3028797757 MCULE-3209284736 PubChem-154924705 PubChem-46985117
 25 27 0 0 0
SMALL
GASTEIGER

@<TRIPOS>ATOM
      1 C          12.8117   41.7110    8.2064 C.2     1  UNL1        0.3097
      2 C          10.3471   41.9290    8.6560 C.3     1  UNL1        0.0768
      3 C           9.3490   41.1130    7.8189 C.3     1  UNL1        0.0199
      4 C           9.9586   39.9334    7.0617 C.3     1  UNL1        0.0018
      5 C          10.1471   38.7416    7.9958 C.3     1  UNL1        0.0018
      6 C          11.4911   38.7803    8.7286 C.3     1  UNL1        0.0199
      7 C          11.6485   39.9970    9.6421 C.3     1  UNL1        0.0768
      8 C          10.5751   40.0076   10.7402 C.3     1  UNL1        0.0199
      9 C          10.2677   41.4378   11.1765 C.3     1  UNL1        0.0034
     10 C           9.7060   42.2647   10.0108 C.3     1  UNL1        0.0199
     11 O          13.9028   41.0991    8.3675 O.2     1  UNL1       -0.2522
     12 N          11.6210   41.2285    8.8458 N.am    1  UNL1       -0.2672
     13 N          12.7552   42.8876    7.3888 N.am    1  UNL1       -0.2396
     14 H          11.8827   43.3343    7.2977 H       1  UNL1        0.1592
     15 C          13.8660   43.4646    6.6946 C.ar    1  UNL1        0.2017
     16 C          15.0052   44.6194    5.3099 C.ar    1  UNL1        0.1253
     17 C          15.8483   43.9192    6.1477 C.ar    1  UNL1        0.1547
     18 N          13.7402   44.3257    5.6634 N.ar    1  UNL1       -0.2118
     19 N          15.1406   43.1873    7.0253 N.ar    1  UNL1       -0.3201
     20 H          15.4735   42.5934    7.7365 H       1  UNL1        0.1688
     21 C          17.3138   43.9505    6.1091 C.2     1  UNL1        0.3587
     22 O          17.9136   44.0069    5.0006 O.2     1  UNL1       -0.2432
     23 O          18.0342   43.9130    7.3063 O.3     1  UNL1       -0.4444
     24 C          17.4242   43.6116    8.5553 C.3     1  UNL1        0.2089
     25 C          17.5413   42.1282    8.8512 C.3     1  UNL1        0.0513
@<TRIPOS>BOND
     1     1    12   am
     2     1    13   am
     3     2    12    1
     4     2     3    1
     5     3     4    1
     6     4     5    1
     7     5     6    1
     8     7     6    1
     9     7     8    1
    10     7    12    1
    11     8     9    1
    12     9    10    1
    13    10     2    1
    14    16    18   ar
    15    17    21    1
    16    17    19   ar
    17    21    23    1
    18    24    23    1
    19    24    25    1
    20    13    15    1
    21    19    15   ar
    22     1    11    2
    23    15    18   ar
    24    16    17   ar
    25    21    22    2
    26    13    14    1
    27    19    20    1
@<TRIPOS>MOLECULE
MolPort-008-363-374 MolPort-047-536-103 CSSS00160416724 MCULE-3028797757 MCULE-3209284736 PubChem-154924705 PubChem-46985117
 25 27 0 0 0
SMALL
GASTEIGER

@<TRIPOS>ATOM
      1 C          14.4860   42.8510    7.2453 C.2     1  UNL1        0.3097
      2 C          16.7892   42.1072    7.9280 C.3     1  UNL1        0.0768
      3 C          17.8729   41.9162    6.8548 C.3     1  UNL1        0.0199
      4 C          17.5752   42.5874    5.5141 C.3     1  UNL1        0.0018
      5 C          17.9044   44.0759    5.5794 C.3     1  UNL1        0.0018
      6 C          16.7300   44.9121    6.0956 C.3     1  UNL1        0.0199
      7 C          16.3174   44.5596    7.5256 C.3     1  UNL1        0.0768
      8 C          17.4691   44.8064    8.5111 C.3     1  UNL1        0.0199
      9 C          17.3601   43.8677    9.7099 C.3     1  UNL1        0.0034
     10 C          17.4661   42.3986    9.2756 C.3     1  UNL1        0.0199
     11 O          13.6793   43.7720    6.9420 O.2     1  UNL1       -0.2522
     12 N          15.8430   43.1728    7.5831 N.am    1  UNL1       -0.2672
     13 N          14.0534   41.4840    7.2562 N.am    1  UNL1       -0.2396
     14 H          14.7172   40.8009    7.5052 H       1  UNL1        0.1592
     15 C          12.7338   41.0330    6.9341 C.ar    1  UNL1        0.2017
     16 C          10.9110   40.7081    5.8754 C.ar    1  UNL1        0.1253
     17 C          10.8611   40.0847    7.1049 C.ar    1  UNL1        0.1547
     18 N          12.1092   41.3124    5.7711 N.ar    1  UNL1       -0.2118
     19 N          12.0056   40.2829    7.7814 N.ar    1  UNL1       -0.3201
     20 H          12.2512   39.9584    8.6779 H       1  UNL1        0.1688
     21 C           9.7318   39.3080    7.6260 C.2     1  UNL1        0.3587
     22 O           9.9277   38.1606    8.1127 O.2     1  UNL1       -0.2432
     23 O           8.4435   39.8478    7.5739 O.3     1  UNL1       -0.4444
     24 C           8.0448   40.9509    8.3782 C.3     1  UNL1        0.2089
     25 C           6.5458   41.1609    8.2735 C.3     1  UNL1        0.0513
@<TRIPOS>BOND
     1     1    12   am
     2     1    13   am
     3     2    12    1
     4     2     3    1
     5     3     4    1
     6     4     5    1
     7     5     6    1
     8     7     6    1
     9     7     8    1
    10     7    12    1
    11     8     9    1
    12     9    10    1
    13    10     2    1
    14    16    18   ar
    15    17    21    1
    16    17    19   ar
    17    21    23    1
    18    24    23    1
    19    24    25    1
    20    13    15    1
    21    19    15   ar
    22     1    11    2
    23    15    18   ar
    24    16    17   ar
    25    21    22    2
    26    13    14    1
    27    19    20    1
@<TRIPOS>MOLECULE
MolPort-008-363-374 MolPort-047-536-103 CSSS00160416724 MCULE-3028797757 MCULE-3209284736 PubChem-154924705 PubChem-46985117
 25 27 0 0 0
SMALL
GASTEIGER

@<TRIPOS>ATOM
      1 C          10.3453   42.2731    8.3433 C.2     1  UNL1        0.3097
      2 C           9.3338   43.1442   10.4745 C.3     1  UNL1        0.0768
      3 C           8.6148   44.5028   10.4721 C.3     1  UNL1        0.0199
      4 C           8.2198   45.0185    9.0884 C.3     1  UNL1        0.0018
      5 C           6.9376   44.3410    8.6140 C.3     1  UNL1        0.0018
      6 C           7.2088   43.0211    7.8866 C.3     1  UNL1        0.0199
      7 C           7.8801   41.9687    8.7705 C.3     1  UNL1        0.0768
      8 C           6.9942   41.6076    9.9717 C.3     1  UNL1        0.0199
      9 C           7.8496   41.1604   11.1543 C.3     1  UNL1        0.0034
     10 C           8.7805   42.2880   11.6234 C.3     1  UNL1        0.0199
     11 O          10.2237   41.6735    7.2403 O.2     1  UNL1       -0.2522
     12 N           9.2026   42.4404    9.1950 N.am    1  UNL1       -0.2672
     13 N          11.6202   42.7870    8.7514 N.am    1  UNL1       -0.2396
     14 H          11.6670   43.2422    9.6231 H       1  UNL1        0.1592
     15 C          12.8302   42.6912    7.9929 C.ar    1  UNL1        0.2017
     16 C          14.6301   41.9201    7.1477 C.ar    1  UNL1        0.1253
     17 C          14.4148   43.2091    6.7061 C.ar    1  UNL1        0.1547
     18 N          13.6152   41.5939    7.9692 N.ar    1  UNL1       -0.2118
     19 N          13.2822   43.7055    7.2329 N.ar    1  UNL1       -0.3201
     20 H          12.8812   44.5942    7.0960 H       1  UNL1        0.1688
     21 C          15.2824   43.9568    5.7904 C.2     1  UNL1        0.3587
     22 O          14.9842   44.0403    4.5674 O.2     1  UNL1       -0.2432
     23 O          16.4384   44.5684    6.2838 O.3     1  UNL1       -0.4444
     24 C          17.6201   43.8365    6.5852 C.3     1  UNL1        0.2089
     25 C          17.8503   43.8076    8.0846 C.3     1  UNL1        0.0513
@<TRIPOS>BOND
     1     1    12   am
     2     1    13   am
     3     2    12    1
     4     2     3    1
     5     3     4    1
     6     4     5    1
     7     5     6    1
     8     7     6    1
     9     7     8    1
    10     7    12    1
    11     8     9    1
    12     9    10    1
    13    10     2    1
    14    16    18   ar
    15    17    21    1
    16    17    19   ar
    17    21    23    1
    18    24    23    1
    19    24    25    1
    20    13    15    1
    21    19    15   ar
    22     1    11    2
    23    15    18   ar
    24    16    17   ar
    25    21    22    2
    26    13    14    1
    27    19    20    1
@<TRIPOS>MOLECULE
MolPort-008-363-374 MolPort-047-536-103 CSSS00160416724 MCULE-3028797757 MCULE-3209284736 PubChem-154924705 PubChem-46985117
 25 27 0 0 0
SMALL
GASTEIGER

@<TRIPOS>ATOM
      1 C          10.2299   33.7628   13.1415 C.2     1  UNL1        0.3097
      2 C           9.4551   34.3888   15.4506 C.3     1  UNL1        0.0768
      3 C           7.9549   34.5909   15.7177 C.3     1  UNL1        0.0199
      4 C           7.0275   33.9955   14.6585 C.3     1  UNL1        0.0018
      5 C           6.8628   32.4946   14.8784 C.3     1  UNL1        0.0018
      6 C           7.9521   31.6782   14.1770 C.3     1  UNL1        0.0199
      7 C           9.3605   31.9771   14.6932 C.3     1  UNL1        0.0768
      8 C           9.4857   31.6420   16.1866 C.3     1  UNL1        0.0199
      9 C          10.5395   32.5260   16.8486 C.3     1  UNL1        0.0034
     10 C          10.1503   34.0092   16.7665 C.3     1  UNL1        0.0199
     11 O          10.4375   32.8873   12.2575 O.2     1  UNL1       -0.2522
     12 N           9.7078   33.3760   14.4210 N.am    1  UNL1       -0.2672
     13 N          10.5145   35.1426   12.8751 N.am    1  UNL1       -0.2396
     14 H          10.3418   35.7884   13.5978 H       1  UNL1        0.1592
     15 C          11.0297   35.6562   11.6424 C.ar    1  UNL1        0.2017
     16 C          12.2883   35.9581    9.9473 C.ar    1  UNL1        0.1253
     17 C          11.1986   36.8014    9.8830 C.ar    1  UNL1        0.1547
     18 N          12.1757   35.2287   11.0728 N.ar    1  UNL1       -0.2118
     19 N          10.3977   36.6197   10.9472 N.ar    1  UNL1       -0.3201
     20 H           9.5547   37.0792   11.1648 H       1  UNL1        0.1688
     21 C          10.9265   37.7694    8.8157 C.2     1  UNL1        0.3587
     22 O          11.8128   38.6019    8.4796 O.2     1  UNL1       -0.2432
     23 O           9.6807   37.7622    8.1819 O.3     1  UNL1       -0.4444
     24 C           9.3485   38.6724    7.1408 C.3     1  UNL1        0.2089
     25 C           8.6979   39.9151    7.7191 C.3     1  UNL1        0.0513
@<TRIPOS>BOND
     1     1    12   am
     2     1    13   am
     3     2    12    1
     4     2     3    1
     5     3     4    1
     6     4     5    1
     7     5     6    1
     8     7     6    1
     9     7     8    1
    10     7    12    1
    11     8     9    1
    12     9    10    1
    13    10     2    1
    14    16    18   ar
    15    17    21    1
    16    17    19   ar
    17    21    23    1
    18    24    23    1
    19    24    25    1
    20    13    15    1
    21    19    15   ar
    22     1    11    2
    23    15    18   ar
    24    16    17   ar
    25    21    22    2
    26    13    14    1
    27    19    20    1
@<TRIPOS>MOLECULE
MolPort-008-363-374 MolPort-047-536-103 CSSS00160416724 MCULE-3028797757 MCULE-3209284736 PubChem-154924705 PubChem-46985117
 25 27 0 0 0
SMALL
GASTEIGER

@<TRIPOS>ATOM
      1 C          14.5645   42.7677    7.3244 C.2     1  UNL1        0.3097
      2 C          16.8797   42.1136    8.0567 C.3     1  UNL1        0.0768
      3 C          17.9715   41.8815    6.9999 C.3     1  UNL1        0.0199
      4 C          17.6655   42.4653    5.6207 C.3     1  UNL1        0.0018
      5 C          17.9640   43.9615    5.5980 C.3     1  UNL1        0.0018
      6 C          16.7707   44.8025    6.0601 C.3     1  UNL1        0.0199
      7 C          16.3595   44.5274    7.5075 C.3     1  UNL1        0.0768
      8 C          17.5019   44.8562    8.4797 C.3     1  UNL1        0.0199
      9 C          17.4073   43.9885    9.7320 C.3     1  UNL1        0.0034
     10 C          17.5451   42.4986    9.3864 C.3     1  UNL1        0.0199
     11 O          13.7404   43.6521    6.9643 O.2     1  UNL1       -0.2522
     12 N          15.9134   43.1370    7.6462 N.am    1  UNL1       -0.2672
     13 N          14.1600   41.3951    7.4156 N.am    1  UNL1       -0.2396
     14 H          14.8366   40.7419    7.7067 H       1  UNL1        0.1592
     15 C          12.8512   40.8986    7.1171 C.ar    1  UNL1        0.2017
     16 C          11.0896   39.6967    7.1487 C.ar    1  UNL1        0.1253
     17 C          10.9442   40.7247    6.2404 C.ar    1  UNL1        0.1547
     18 N          12.3092   39.8123    7.7060 N.ar    1  UNL1       -0.2118
     19 N          12.0493   41.4893    6.2121 N.ar    1  UNL1       -0.3201
     20 H          12.2284   42.2868    5.6633 H       1  UNL1        0.1688
     21 C           9.7615   40.9727    5.4098 C.2     1  UNL1        0.3587
     22 O           9.0373   41.9819    5.6304 O.2     1  UNL1       -0.2432
     23 O           9.4451   40.0819    4.3802 O.3     1  UNL1       -0.4444
     24 C          10.4166   39.2363    3.7768 C.3     1  UNL1        0.2089
     25 C           9.7344   38.1266    2.9989 C.3     1  UNL1        0.0513
@<TRIPOS>BOND
     1     1    12   am
     2     1    13   am
     3     2    12    1
     4     2     3    1
     5     3     4    1
     6     4     5    1
     7     5     6    1
     8     7     6    1
     9     7     8    1
    10     7    12    1
    11     8     9    1
    12     9    10    1
    13    10     2    1
    14    16    18   ar
    15    17    21    1
    16    17    19   ar
    17    21    23    1
    18    24    23    1
    19    24    25    1
    20    13    15    1
    21    19    15   ar
    22     1    11    2
    23    15    18   ar
    24    16    17   ar
    25    21    22    2
    26    13    14    1
    27    19    20    1
@<TRIPOS>MOLECULE
MolPort-008-363-374 MolPort-047-536-103 CSSS00160416724 MCULE-3028797757 MCULE-3209284736 PubChem-154924705 PubChem-46985117
 25 27 0 0 0
SMALL
GASTEIGER

@<TRIPOS>ATOM
      1 C          13.0657   40.9325    8.1453 C.2     1  UNL1        0.3097
      2 C          11.7758   39.7532    9.9535 C.3     1  UNL1        0.0768
      3 C          10.8954   40.5706   10.9124 C.3     1  UNL1        0.0199
      4 C          10.5579   41.9813   10.4304 C.3     1  UNL1        0.0018
      5 C           9.4155   41.9394    9.4198 C.3     1  UNL1        0.0018
      6 C           9.9104   41.7232    7.9869 C.3     1  UNL1        0.0199
      7 C          10.6306   40.3884    7.7893 C.3     1  UNL1        0.0768
      8 C           9.6981   39.2061    8.0904 C.3     1  UNL1        0.0199
      9 C          10.4991   38.0006    8.5755 C.3     1  UNL1        0.0034
     10 C          11.2384   38.3160    9.8840 C.3     1  UNL1        0.0199
     11 O          13.1141   41.4478    6.9950 O.2     1  UNL1       -0.2522
     12 N          11.8428   40.3460    8.6142 N.am    1  UNL1       -0.2672
     13 N          14.2269   40.9283    8.9864 N.am    1  UNL1       -0.2396
     14 H          14.1422   40.5094    9.8733 H       1  UNL1        0.1592
     15 C          15.4994   41.4843    8.6397 C.ar    1  UNL1        0.2017
     16 C          17.6077   41.7743    8.4982 C.ar    1  UNL1        0.1253
     17 C          16.9467   42.7625    7.7988 C.ar    1  UNL1        0.1547
     18 N          16.6789   40.9603    9.0333 N.ar    1  UNL1       -0.2118
     19 N          15.6162   42.5897    7.8810 N.ar    1  UNL1       -0.3201
     20 H          14.9017   43.1379    7.4834 H       1  UNL1        0.1688
     21 C          17.5807   43.8591    7.0601 C.2     1  UNL1        0.3587
     22 O          18.6702   44.3466    7.4687 O.2     1  UNL1       -0.2432
     23 O          16.9662   44.3578    5.9080 O.3     1  UNL1       -0.4444
     24 C          15.6701   44.9433    5.9263 C.3     1  UNL1        0.2089
     25 C          14.7230   44.1468    5.0485 C.3     1  UNL1        0.0513
@<TRIPOS>BOND
     1     1    12   am
     2     1    13   am
     3     2    12    1
     4     2     3    1
     5     3     4    1
     6     4     5    1
     7     5     6    1
     8     7     6    1
     9     7     8    1
    10     7    12    1
    11     8     9    1
    12     9    10    1
    13    10     2    1
    14    16    18   ar
    15    17    21    1
    16    17    19   ar
    17    21    23    1
    18    24    23    1
    19    24    25    1
    20    13    15    1
    21    19    15   ar
    22     1    11    2
    23    15    18   ar
    24    16    17   ar
    25    21    22    2
    26    13    14    1
    27    19    20    1
@<TRIPOS>MOLECULE
MolPort-008-363-374 MolPort-047-536-103 CSSS00160416724 MCULE-3028797757 MCULE-3209284736 PubChem-154924705 PubChem-46985117
 25 27 0 0 0
SMALL
GASTEIGER

@<TRIPOS>ATOM
      1 C          14.9473   42.0029    7.8778 C.2     1  UNL1        0.3097
      2 C          17.3528   42.1745    8.5907 C.3     1  UNL1        0.0768
      3 C          18.4675   41.8930    7.5704 C.3     1  UNL1        0.0199
      4 C          18.0251   41.9327    6.1078 C.3     1  UNL1        0.0018
      5 C          17.9414   43.3748    5.6161 C.3     1  UNL1        0.0018
      6 C          16.5765   44.0096    5.8967 C.3     1  UNL1        0.0199
      7 C          16.2475   44.1056    7.3873 C.3     1  UNL1        0.0768
      8 C          17.2725   44.9789    8.1255 C.3     1  UNL1        0.0199
      9 C          17.3976   44.5437    9.5833 C.3     1  UNL1        0.0034
     10 C          17.9020   43.0971    9.6890 C.3     1  UNL1        0.0199
     11 O          13.9287   42.5114    7.3348 O.2     1  UNL1       -0.2522
     12 N          16.1618   42.7618    7.9692 N.am    1  UNL1       -0.2672
     13 N          14.8975   40.6707    8.4058 N.am    1  UNL1       -0.2396
     14 H          15.7156   40.3191    8.8256 H       1  UNL1        0.1592
     15 C          13.7534   39.8114    8.3715 C.ar    1  UNL1        0.2017
     16 C          11.8886   38.9505    7.7970 C.ar    1  UNL1        0.1253
     17 C          12.4223   38.2547    8.8617 C.ar    1  UNL1        0.1547
     18 N          12.7426   39.9437    7.4876 N.ar    1  UNL1       -0.2118
     19 N          13.5987   38.7888    9.2326 N.ar    1  UNL1       -0.3201
     20 H          14.2002   38.5021    9.9573 H       1  UNL1        0.1688
     21 C          11.8140   37.0921    9.5163 C.2     1  UNL1        0.3587
     22 O          10.6113   37.1398    9.8943 O.2     1  UNL1       -0.2432
     23 O          12.5780   35.9393    9.7193 O.3     1  UNL1       -0.4444
     24 C          13.9677   35.9871   10.0180 C.3     1  UNL1        0.2089
     25 C          14.7625   35.2981    8.9247 C.3     1  UNL1        0.0513
@<TRIPOS>BOND
     1     1    12   am
     2     1    13   am
     3     2    12    1
     4     2     3    1
     5     3     4    1
     6     4     5    1
     7     5     6    1
     8     7     6    1
     9     7     8    1
    10     7    12    1
    11     8     9    1
    12     9    10    1
    13    10     2    1
    14    16    18   ar
    15    17    21    1
    16    17    19   ar
    17    21    23    1
    18    24    23    1
    19    24    25    1
    20    13    15    1
    21    19    15   ar
    22     1    11    2
    23    15    18   ar
    24    16    17   ar
    25    21    22    2
    26    13    14    1
    27    19    20    1
@<TRIPOS>MOLECULE
MolPort-008-363-374 MolPort-047-536-103 CSSS00160416724 MCULE-3028797757 MCULE-3209284736 PubChem-154924705 PubChem-46985117
 25 27 0 0 0
SMALL
GASTEIGER

@<TRIPOS>ATOM
      1 C          10.1986   40.8178    9.8633 C.2     1  UNL1        0.3097
      2 C           8.9071   42.3867   11.3447 C.3     1  UNL1        0.0768
      3 C           8.8425   43.8814   10.9917 C.3     1  UNL1        0.0199
      4 C           9.2258   44.2188    9.5510 C.3     1  UNL1        0.0018
      5 C           8.0545   43.9479    8.6113 C.3     1  UNL1        0.0018
      6 C           8.0275   42.5000    8.1133 C.3     1  UNL1        0.0199
      7 C           7.8481   41.4764    9.2355 C.3     1  UNL1        0.0768
      8 C           6.5169   41.6884    9.9710 C.3     1  UNL1        0.0199
      9 C           6.6220   41.2149   11.4184 C.3     1  UNL1        0.0034
     10 C           7.6784   42.0192   12.1899 C.3     1  UNL1        0.0199
     11 O          10.2658   40.0927    8.8333 O.2     1  UNL1       -0.2522
     12 N           8.9900   41.5347   10.1544 N.am    1  UNL1       -0.2672
     13 N          11.3232   40.9281   10.7458 N.am    1  UNL1       -0.2396
     14 H          11.2213   41.5010   11.5399 H       1  UNL1        0.1592
     15 C          12.5822   40.2718   10.5647 C.ar    1  UNL1        0.2017
     16 C          14.4986   39.7555    9.7838 C.ar    1  UNL1        0.1253
     17 C          14.1893   38.9417   10.8538 C.ar    1  UNL1        0.1547
     18 N          13.4690   40.6034    9.6032 N.ar    1  UNL1       -0.2118
     19 N          12.9827   39.2584   11.3544 N.ar    1  UNL1       -0.3201
     20 H          12.5079   38.8489   12.1134 H       1  UNL1        0.1688
     21 C          15.0386   37.8740   11.3912 C.2     1  UNL1        0.3587
     22 O          16.0916   38.1644   12.0224 O.2     1  UNL1       -0.2432
     23 O          14.6731   36.5394   11.1938 O.3     1  UNL1       -0.4444
     24 C          13.9926   36.0990   10.0251 C.3     1  UNL1        0.2089
     25 C          12.6059   35.5986   10.3834 C.3     1  UNL1        0.0513
@<TRIPOS>BOND
     1     1    12   am
     2     1    13   am
     3     2    12    1
     4     2     3    1
     5     3     4    1
     6     4     5    1
     7     5     6    1
     8     7     6    1
     9     7     8    1
    10     7    12    1
    11     8     9    1
    12     9    10    1
    13    10     2    1
    14    16    18   ar
    15    17    21    1
    16    17    19   ar
    17    21    23    1
    18    24    23    1
    19    24    25    1
    20    13    15    1
    21    19    15   ar
    22     1    11    2
    23    15    18   ar
    24    16    17   ar
    25    21    22    2
    26    13    14    1
    27    19    20    1
@<TRIPOS>MOLECULE
MolPort-008-363-374 MolPort-047-536-103 CSSS00160416724 MCULE-3028797757 MCULE-3209284736 PubChem-154924705 PubChem-46985117
 25 27 0 0 0
SMALL
GASTEIGER

@<TRIPOS>ATOM
      1 C          10.3336   40.7507    9.8525 C.2     1  UNL1        0.3097
      2 C           9.1077   42.3506   11.3563 C.3     1  UNL1        0.0768
      3 C           9.0063   43.8332   10.9635 C.3     1  UNL1        0.0199
      4 C           9.3057   44.1309    9.4944 C.3     1  UNL1        0.0018
      5 C           8.0876   43.8201    8.6296 C.3     1  UNL1        0.0018
      6 C           8.0500   42.3578    8.1768 C.3     1  UNL1        0.0199
      7 C           7.9446   41.3666    9.3369 C.3     1  UNL1        0.0768
      8 C           6.6536   41.5875   10.1386 C.3     1  UNL1        0.0199
      9 C           6.8438   41.1589   11.5912 C.3     1  UNL1        0.0034
     10 C           7.9318   41.9965   12.2789 C.3     1  UNL1        0.0199
     11 O          10.3523   39.9957    8.8423 O.2     1  UNL1       -0.2522
     12 N           9.1347   41.4640   10.1889 N.am    1  UNL1       -0.2672
     13 N          11.5039   40.8987   10.6677 N.am    1  UNL1       -0.2396
     14 H          11.4392   41.4942   11.4490 H       1  UNL1        0.1592
     15 C          12.7585   40.2498   10.4365 C.ar    1  UNL1        0.2017
     16 C          14.5279   39.5581    9.4673 C.ar    1  UNL1        0.1253
     17 C          14.5040   39.1212   10.7755 C.ar    1  UNL1        0.1547
     18 N          13.4110   40.2786    9.2558 N.ar    1  UNL1       -0.2118
     19 N          13.3923   39.5516   11.3966 N.ar    1  UNL1       -0.3201
     20 H          13.1106   39.3945   12.3267 H       1  UNL1        0.1688
     21 C          15.5329   38.3019   11.4238 C.2     1  UNL1        0.3587
     22 O          15.2028   37.2647   12.0615 O.2     1  UNL1       -0.2432
     23 O          16.8745   38.6831   11.3316 O.3     1  UNL1       -0.4444
     24 C          17.8359   37.9243   10.6084 C.3     1  UNL1        0.2089
     25 C          19.1181   38.7194   10.4484 C.3     1  UNL1        0.0513
@<TRIPOS>BOND
     1     1    12   am
     2     1    13   am
     3     2    12    1
     4     2     3    1
     5     3     4    1
     6     4     5    1
     7     5     6    1
     8     7     6    1
     9     7     8    1
    10     7    12    1
    11     8     9    1
    12     9    10    1
    13    10     2    1
    14    16    18   ar
    15    17    21    1
    16    17    19   ar
    17    21    23    1
    18    24    23    1
    19    24    25    1
    20    13    15    1
    21    19    15   ar
    22     1    11    2
    23    15    18   ar
    24    16    17   ar
    25    21    22    2
    26    13    14    1
    27    19    20    1
@<TRIPOS>MOLECULE
MolPort-008-363-374 MolPort-047-536-103 CSSS00160416724 MCULE-3028797757 MCULE-3209284736 PubChem-154924705 PubChem-46985117
 25 27 0 0 0
SMALL
GASTEIGER

@<TRIPOS>ATOM
      1 C           9.3865   42.1726    8.4929 C.2     1  UNL1        0.3097
      2 C           7.6538   42.4694    6.6947 C.3     1  UNL1        0.0768
      3 C           6.6667   41.3291    6.3978 C.3     1  UNL1        0.0199
      4 C           6.5582   40.2709    7.4955 C.3     1  UNL1        0.0018
      5 C           5.6509   40.7615    8.6199 C.3     1  UNL1        0.0018
      6 C           6.4120   41.5703    9.6742 C.3     1  UNL1        0.0199
      7 C           7.0409   42.8493    9.1193 C.3     1  UNL1        0.0768
      8 C           5.9687   43.7969    8.5617 C.3     1  UNL1        0.0199
      9 C           6.5458   44.6626    7.4448 C.3     1  UNL1        0.0034
     10 C           7.0218   43.8019    6.2655 C.3     1  UNL1        0.0199
     11 O           9.7163   42.2057    9.7099 O.2     1  UNL1       -0.2522
     12 N           8.0475   42.5143    8.1063 N.am    1  UNL1       -0.2672
     13 N          10.3434   41.7968    7.4934 N.am    1  UNL1       -0.2396
     14 H          10.0411   41.7914    6.5564 H       1  UNL1        0.1592
     15 C          11.7028   41.4290    7.7488 C.ar    1  UNL1        0.2017
     16 C          13.4148   40.3060    8.3459 C.ar    1  UNL1        0.1253
     17 C          13.8033   41.5364    7.8580 C.ar    1  UNL1        0.1547
     18 N          12.0724   40.2423    8.2739 N.ar    1  UNL1       -0.2118
     19 N          12.7316   42.2533    7.4783 N.ar    1  UNL1       -0.3201
     20 H          12.7055   43.1601    7.0958 H       1  UNL1        0.1688
     21 C          15.1837   42.0202    7.7559 C.2     1  UNL1        0.3587
     22 O          16.1099   41.4142    8.3614 O.2     1  UNL1       -0.2432
     23 O          15.4596   43.1555    6.9886 O.3     1  UNL1       -0.4444
     24 C          16.5020   44.0652    7.3185 C.3     1  UNL1        0.2089
     25 C          17.7273   43.7889    6.4675 C.3     1  UNL1        0.0513
@<TRIPOS>BOND
     1     1    12   am
     2     1    13   am
     3     2    12    1
     4     2     3    1
     5     3     4    1
     6     4     5    1
     7     5     6    1
     8     7     6    1
     9     7     8    1
    10     7    12    1
    11     8     9    1
    12     9    10    1
    13    10     2    1
    14    16    18   ar
    15    17    21    1
    16    17    19   ar
    17    21    23    1
    18    24    23    1
    19    24    25    1
    20    13    15    1
    21    19    15   ar
    22     1    11    2
    23    15    18   ar
    24    16    17   ar
    25    21    22    2
    26    13    14    1
    27    19    20    1
