@<TRIPOS>MOLECULE
MolPort-001-009-502 4703810 CSSS00121621149 MCULE-8687061856 PubChem-2996968 ZINC000004703810 ZINC04703810
 24 25 0 0 0
SMALL
GASTEIGER

@<TRIPOS>ATOM
      1 C          12.7770   41.6386    6.5891 C.2     1  UNL1        0.2517
      2 O          13.6410   41.1919    7.3923 O.2     1  UNL1       -0.2697
      3 N          13.0244   42.8459    5.8564 N.am    1  UNL1       -0.2480
      4 H          12.3212   43.1569    5.2416 H       1  UNL1        0.1581
      5 C           9.0809   39.5326    6.0536 C.ar    1  UNL1        0.1386
      6 C           9.6999   40.1649    4.9638 C.ar    1  UNL1        0.0370
      7 C          10.9047   40.8509    5.1385 C.ar    1  UNL1        0.0076
      8 C          11.5064   40.9158    6.4033 C.ar    1  UNL1        0.0539
      9 C          10.8844   40.2854    7.4901 C.ar    1  UNL1        0.0076
     10 C           9.6794   39.5992    7.3154 C.ar    1  UNL1        0.0370
     11 O           7.8728   38.8401    5.9135 O.3     1  UNL1       -0.4755
     12 C           6.6050   39.3954    6.2543 C.3     1  UNL1        0.2054
     13 C           6.7468   40.8530    6.6759 C.3     1  UNL1        0.0473
     14 C           7.1826   41.5921    9.0184 C.3     1  UNL1        0.0001
     15 C           6.1321   41.0899    8.0461 C.3     1  UNL1        0.0038
     16 C          14.2155   43.6331    5.9505 C.ar    1  UNL1        0.2619
     17 N          15.3424   43.1994    6.5435 N.ar    1  UNL1       -0.1137
     18 N          16.1694   44.2206    6.4039 N.ar    1  UNL1       -0.1497
     19 N          15.5898   45.2294    5.7760 N.ar    1  UNL1       -0.0438
     20 N          14.3488   44.8867    5.4705 N.ar    1  UNL1       -0.0918
     21 C          17.5233   44.2531    6.9273 C.3     1  UNL1        0.1514
     22 C          17.5562   43.6216    8.3085 C.3     1  UNL1        0.0283
     23 C          17.9433   42.1568    8.2126 C.3     1  UNL1        0.0021
     24 C          17.1519   41.3333    9.2112 C.3     1  UNL1        0.0001
@<TRIPOS>BOND
     1    14    15    1
     2    15    13    1
     3    13    12    1
     4    12    11    1
     5     5    11    1
     6     6     7   ar
     7     8     9   ar
     8     8     1    1
     9    10     5   ar
    10     1     3   am
    11    16    20   ar
    12    21    18    1
    13    21    22    1
    14    22    23    1
    15    23    24    1
    16     3    16    1
    17    18    17   ar
    18    18    19   ar
    19     5     6   ar
    20     7     8   ar
    21     9    10   ar
    22     1     2    2
    23    16    17   ar
    24    19    20   ar
    25     3     4    1
@<TRIPOS>MOLECULE
MolPort-001-009-502 4703810 CSSS00121621149 MCULE-8687061856 PubChem-2996968 ZINC000004703810 ZINC04703810
 24 25 0 0 0
SMALL
GASTEIGER

@<TRIPOS>ATOM
      1 C           6.2106   41.1363    8.7993 C.2     1  UNL1        0.2517
      2 O           7.3688   41.0981    9.2978 O.2     1  UNL1       -0.2697
      3 N           6.0082   40.8335    7.4126 N.am    1  UNL1       -0.2480
      4 H           5.0872   40.8768    7.0674 H       1  UNL1        0.1581
      5 C           2.8613   42.1834   11.2628 C.ar    1  UNL1        0.1386
      6 C           3.7091   41.1272   11.6320 C.ar    1  UNL1        0.0370
      7 C           4.8008   40.7864   10.8292 C.ar    1  UNL1        0.0076
      8 C           5.0596   41.4943    9.6469 C.ar    1  UNL1        0.0539
      9 C           4.2096   42.5469    9.2797 C.ar    1  UNL1        0.0076
     10 C           3.1177   42.8880   10.0827 C.ar    1  UNL1        0.0370
     11 O           1.7579   42.5483   12.0425 O.3     1  UNL1       -0.4755
     12 C           1.5586   42.0990   13.3805 C.3     1  UNL1        0.2054
     13 C           0.3069   42.7260   13.9826 C.3     1  UNL1        0.0473
     14 C          -1.8954   41.6519   13.5139 C.3     1  UNL1        0.0001
     15 C          -0.6823   41.6597   14.4248 C.3     1  UNL1        0.0038
     16 C           7.0427   40.4731    6.4922 C.ar    1  UNL1        0.2619
     17 N           8.2150   41.1273    6.4057 N.ar    1  UNL1       -0.1137
     18 N           8.8554   40.4745    5.4517 N.ar    1  UNL1       -0.1497
     19 N           8.1232   39.4862    4.9671 N.ar    1  UNL1       -0.0438
     20 N           6.9669   39.4556    5.6098 N.ar    1  UNL1       -0.0918
     21 C          10.1720   40.8350    4.9569 C.3     1  UNL1        0.1514
     22 C          10.8965   39.5921    4.4694 C.3     1  UNL1        0.0283
     23 C           9.9772   38.3854    4.5280 C.3     1  UNL1        0.0021
     24 C          10.1238   37.5463    3.2725 C.3     1  UNL1        0.0001
@<TRIPOS>BOND
     1    14    15    1
     2    15    13    1
     3    13    12    1
     4    12    11    1
     5     5    11    1
     6     6     7   ar
     7     8     9   ar
     8     8     1    1
     9    10     5   ar
    10     1     3   am
    11    16    20   ar
    12    21    18    1
    13    21    22    1
    14    22    23    1
    15    23    24    1
    16     3    16    1
    17    18    17   ar
    18    18    19   ar
    19     5     6   ar
    20     7     8   ar
    21     9    10   ar
    22     1     2    2
    23    16    17   ar
    24    19    20   ar
    25     3     4    1
@<TRIPOS>MOLECULE
MolPort-001-009-502 4703810 CSSS00121621149 MCULE-8687061856 PubChem-2996968 ZINC000004703810 ZINC04703810
 24 25 0 0 0
SMALL
GASTEIGER

@<TRIPOS>ATOM
      1 C           6.7778   42.4570    8.2914 C.2     1  UNL1        0.2517
      2 O           6.7390   43.4787    7.5525 O.2     1  UNL1       -0.2697
      3 N           7.8250   41.4901    8.1364 N.am    1  UNL1       -0.2480
      4 H           7.8142   40.7083    8.7347 H       1  UNL1        0.1581
      5 C           3.7640   41.8681   11.2836 C.ar    1  UNL1        0.1386
      6 C           3.4904   42.6441   10.1462 C.ar    1  UNL1        0.0370
      7 C           4.4727   42.8355    9.1709 C.ar    1  UNL1        0.0076
      8 C           5.7409   42.2562    9.3190 C.ar    1  UNL1        0.0539
      9 C           6.0118   41.4839   10.4572 C.ar    1  UNL1        0.0076
     10 C           5.0293   41.2922   11.4326 C.ar    1  UNL1        0.0370
     11 O           2.8038   41.6592   12.2801 O.3     1  UNL1       -0.4755
     12 C           1.6126   42.4331   12.3977 C.3     1  UNL1        0.2054
     13 C           0.9742   42.2413   13.7681 C.3     1  UNL1        0.0473
     14 C          -0.8344   43.9340   14.0646 C.3     1  UNL1        0.0001
     15 C          -0.5246   42.4908   13.7146 C.3     1  UNL1        0.0038
     16 C           8.8844   41.5746    7.1785 C.ar    1  UNL1        0.2619
     17 N          10.1721   41.7682    7.5167 N.ar    1  UNL1       -0.1137
     18 N          10.7924   41.7792    6.3499 N.ar    1  UNL1       -0.1497
     19 N           9.9434   41.6162    5.3497 N.ar    1  UNL1       -0.0438
     20 N           8.7230   41.4790    5.8426 N.ar    1  UNL1       -0.0918
     21 C          12.2174   42.0029    6.1842 C.3     1  UNL1        0.1514
     22 C          12.9850   41.2453    7.2540 C.3     1  UNL1        0.0283
     23 C          14.3429   41.8838    7.4845 C.3     1  UNL1        0.0021
     24 C          15.0829   41.1673    8.5983 C.3     1  UNL1        0.0001
@<TRIPOS>BOND
     1    14    15    1
     2    15    13    1
     3    13    12    1
     4    12    11    1
     5     5    11    1
     6     6     7   ar
     7     8     9   ar
     8     8     1    1
     9    10     5   ar
    10     1     3   am
    11    16    20   ar
    12    21    18    1
    13    21    22    1
    14    22    23    1
    15    23    24    1
    16     3    16    1
    17    18    17   ar
    18    18    19   ar
    19     5     6   ar
    20     7     8   ar
    21     9    10   ar
    22     1     2    2
    23    16    17   ar
    24    19    20   ar
    25     3     4    1
@<TRIPOS>MOLECULE
MolPort-001-009-502 4703810 CSSS00121621149 MCULE-8687061856 PubChem-2996968 ZINC000004703810 ZINC04703810
 24 25 0 0 0
SMALL
GASTEIGER

@<TRIPOS>ATOM
      1 C           7.4560   41.9266    9.1107 C.2     1  UNL1        0.2517
      2 O           8.0247   42.9320    8.6036 O.2     1  UNL1       -0.2697
      3 N           8.1182   40.6552    9.1349 N.am    1  UNL1       -0.2480
      4 H           7.6355   39.8988    9.5400 H       1  UNL1        0.1581
      5 C           3.5227   42.3096   10.7737 C.ar    1  UNL1        0.1386
      6 C           3.8209   42.8741    9.5235 C.ar    1  UNL1        0.0370
      7 C           5.1028   42.7488    8.9815 C.ar    1  UNL1        0.0076
      8 C           6.1038   42.0598    9.6810 C.ar    1  UNL1        0.0539
      9 C           5.8035   41.4993   10.9303 C.ar    1  UNL1        0.0076
     10 C           4.5213   41.6245   11.4724 C.ar    1  UNL1        0.0370
     11 O           2.2503   42.4194   11.3459 O.3     1  UNL1       -0.4755
     12 C           1.9528   42.0210   12.6818 C.3     1  UNL1        0.2054
     13 C           0.6960   42.7182   13.1886 C.3     1  UNL1        0.0473
     14 C           0.3627   43.0001   15.6449 C.3     1  UNL1        0.0001
     15 C           0.1832   42.0664   14.4628 C.3     1  UNL1        0.0038
     16 C           9.4269   40.4018    8.6151 C.ar    1  UNL1        0.2619
     17 N          10.5139   40.2502    9.3931 N.ar    1  UNL1       -0.1137
     18 N          11.4828   40.0370    8.5201 N.ar    1  UNL1       -0.1497
     19 N          11.0298   40.0672    7.2785 N.ar    1  UNL1       -0.0438
     20 N           9.7261   40.2928    7.3043 N.ar    1  UNL1       -0.0918
     21 C          12.8782   39.8535    8.8768 C.3     1  UNL1        0.1514
     22 C          13.1161   40.3460   10.2940 C.3     1  UNL1        0.0283
     23 C          13.8479   39.2921   11.1055 C.3     1  UNL1        0.0021
     24 C          13.2369   37.9236   10.8701 C.3     1  UNL1        0.0001
@<TRIPOS>BOND
     1    14    15    1
     2    15    13    1
     3    13    12    1
     4    12    11    1
     5     5    11    1
     6     6     7   ar
     7     8     9   ar
     8     8     1    1
     9    10     5   ar
    10     1     3   am
    11    16    20   ar
    12    21    18    1
    13    21    22    1
    14    22    23    1
    15    23    24    1
    16     3    16    1
    17    18    17   ar
    18    18    19   ar
    19     5     6   ar
    20     7     8   ar
    21     9    10   ar
    22     1     2    2
    23    16    17   ar
    24    19    20   ar
    25     3     4    1
@<TRIPOS>MOLECULE
MolPort-001-009-502 4703810 CSSS00121621149 MCULE-8687061856 PubChem-2996968 ZINC000004703810 ZINC04703810
 24 25 0 0 0
SMALL
GASTEIGER

@<TRIPOS>ATOM
      1 C           6.3496   41.0455    8.6792 C.2     1  UNL1        0.2517
      2 O           7.4964   41.0697    9.2043 O.2     1  UNL1       -0.2697
      3 N           6.1885   40.6580    7.3083 N.am    1  UNL1       -0.2480
      4 H           5.2751   40.6546    6.9410 H       1  UNL1        0.1581
      5 C           2.9152   42.1335   11.0039 C.ar    1  UNL1        0.1386
      6 C           3.7947   41.1400   11.4622 C.ar    1  UNL1        0.0370
      7 C           4.9141   40.7858   10.7047 C.ar    1  UNL1        0.0076
      8 C           5.1694   41.4177    9.4793 C.ar    1  UNL1        0.0539
      9 C           4.2879   42.4076    9.0231 C.ar    1  UNL1        0.0076
     10 C           3.1683   42.7620    9.7809 C.ar    1  UNL1        0.0370
     11 O           1.7837   42.5095   11.7366 O.3     1  UNL1       -0.4755
     12 C           1.6083   42.2109   13.1193 C.3     1  UNL1        0.2054
     13 C           0.4620   43.0238   13.7087 C.3     1  UNL1        0.0473
     14 C          -1.1550   41.2716   14.4425 C.3     1  UNL1        0.0001
     15 C          -0.1553   42.3152   14.9037 C.3     1  UNL1        0.0038
     16 C           7.2540   40.2760    6.4331 C.ar    1  UNL1        0.2619
     17 N           8.3152   41.0615    6.1748 N.ar    1  UNL1       -0.1137
     18 N           9.0340   40.3328    5.3391 N.ar    1  UNL1       -0.1497
     19 N           8.4510   39.1741    5.0838 N.ar    1  UNL1       -0.0438
     20 N           7.3197   39.1049    5.7669 N.ar    1  UNL1       -0.0918
     21 C          10.2765   40.7740    4.7310 C.3     1  UNL1        0.1514
     22 C          11.4264   40.5672    5.7019 C.3     1  UNL1        0.0283
     23 C          11.7184   41.8506    6.4586 C.3     1  UNL1        0.0021
     24 C          13.1829   42.2233    6.3239 C.3     1  UNL1        0.0001
@<TRIPOS>BOND
     1    14    15    1
     2    15    13    1
     3    13    12    1
     4    12    11    1
     5     5    11    1
     6     6     7   ar
     7     8     9   ar
     8     8     1    1
     9    10     5   ar
    10     1     3   am
    11    16    20   ar
    12    21    18    1
    13    21    22    1
    14    22    23    1
    15    23    24    1
    16     3    16    1
    17    18    17   ar
    18    18    19   ar
    19     5     6   ar
    20     7     8   ar
    21     9    10   ar
    22     1     2    2
    23    16    17   ar
    24    19    20   ar
    25     3     4    1
@<TRIPOS>MOLECULE
MolPort-001-009-502 4703810 CSSS00121621149 MCULE-8687061856 PubChem-2996968 ZINC000004703810 ZINC04703810
 24 25 0 0 0
SMALL
GASTEIGER

@<TRIPOS>ATOM
      1 C           6.8742   42.2721    9.1630 C.2     1  UNL1        0.2517
      2 O           7.1567   43.3219    8.5233 O.2     1  UNL1       -0.2697
      3 N           7.8046   41.1825    9.2146 N.am    1  UNL1       -0.2480
      4 H           7.5408   40.3830    9.7250 H       1  UNL1        0.1581
      5 C           3.1087   41.9655   11.1904 C.ar    1  UNL1        0.1386
      6 C           4.2048   41.1968   11.6125 C.ar    1  UNL1        0.0370
      7 C           5.4320   41.2971   10.9519 C.ar    1  UNL1        0.0076
      8 C           5.5806   42.1649    9.8607 C.ar    1  UNL1        0.0539
      9 C           4.4834   42.9294    9.4400 C.ar    1  UNL1        0.0076
     10 C           3.2559   42.8291   10.1008 C.ar    1  UNL1        0.0370
     11 O           1.8654   41.8865   11.8281 O.3     1  UNL1       -0.4755
     12 C           1.4513   42.7834   12.8557 C.3     1  UNL1        0.2054
     13 C           0.5941   42.0643   13.8903 C.3     1  UNL1        0.0473
     14 C          -0.6806   44.0275   14.7534 C.3     1  UNL1        0.0001
     15 C           0.3316   42.9510   15.0970 C.3     1  UNL1        0.0038
     16 C           9.0873   41.1683    8.5807 C.ar    1  UNL1        0.2619
     17 N           9.3941   40.3567    7.5527 N.ar    1  UNL1       -0.1137
     18 N          10.6495   40.6703    7.2846 N.ar    1  UNL1       -0.1497
     19 N          11.0986   41.6074    8.1018 N.ar    1  UNL1       -0.0438
     20 N          10.1289   41.9488    8.9351 N.ar    1  UNL1       -0.0918
     21 C          11.4525   40.0245    6.2617 C.3     1  UNL1        0.1514
     22 C          10.5651   39.1662    5.3766 C.3     1  UNL1        0.0283
     23 C          10.5900   39.6765    3.9470 C.3     1  UNL1        0.0021
     24 C           9.6216   38.8875    3.0861 C.3     1  UNL1        0.0001
@<TRIPOS>BOND
     1    14    15    1
     2    15    13    1
     3    13    12    1
     4    12    11    1
     5     5    11    1
     6     6     7   ar
     7     8     9   ar
     8     8     1    1
     9    10     5   ar
    10     1     3   am
    11    16    20   ar
    12    21    18    1
    13    21    22    1
    14    22    23    1
    15    23    24    1
    16     3    16    1
    17    18    17   ar
    18    18    19   ar
    19     5     6   ar
    20     7     8   ar
    21     9    10   ar
    22     1     2    2
    23    16    17   ar
    24    19    20   ar
    25     3     4    1
@<TRIPOS>MOLECULE
MolPort-001-009-502 4703810 CSSS00121621149 MCULE-8687061856 PubChem-2996968 ZINC000004703810 ZINC04703810
 24 25 0 0 0
SMALL
GASTEIGER

@<TRIPOS>ATOM
      1 C          10.4574   42.6172    9.1277 C.2     1  UNL1        0.2517
      2 O          10.9980   43.3172   10.0272 O.2     1  UNL1       -0.2697
      3 N          11.2501   41.7370    8.3200 N.am    1  UNL1       -0.2480
      4 H          10.7852   41.2108    7.6299 H       1  UNL1        0.1581
      5 C           6.2265   42.8674    8.4796 C.ar    1  UNL1        0.1386
      6 C           6.9625   44.0181    8.8034 C.ar    1  UNL1        0.0370
      7 C           8.3414   43.9364    9.0142 C.ar    1  UNL1        0.0076
      8 C           9.0032   42.7050    8.9059 C.ar    1  UNL1        0.0539
      9 C           8.2650   41.5573    8.5848 C.ar    1  UNL1        0.0076
     10 C           6.8858   41.6390    8.3738 C.ar    1  UNL1        0.0370
     11 O           4.8443   42.9142    8.2652 O.3     1  UNL1       -0.4755
     12 C           3.9060   43.2923    9.2694 C.3     1  UNL1        0.2054
     13 C           4.0710   42.4330   10.5171 C.3     1  UNL1        0.0473
     14 C           3.9281   40.1180   11.4359 C.3     1  UNL1        0.0001
     15 C           3.5250   41.0317   10.2940 C.3     1  UNL1        0.0038
     16 C          12.6654   41.5649    8.4404 C.ar    1  UNL1        0.2619
     17 N          13.5578   42.2447    7.6978 N.ar    1  UNL1       -0.1137
     18 N          14.7202   41.7866    8.1283 N.ar    1  UNL1       -0.1497
     19 N          14.5606   40.8713    9.0688 N.ar    1  UNL1       -0.0438
     20 N          13.2665   40.7101    9.2935 N.ar    1  UNL1       -0.0918
     21 C          16.0074   42.1929    7.5933 C.3     1  UNL1        0.1514
     22 C          16.1629   43.6991    7.7150 C.3     1  UNL1        0.0283
     23 C          17.4933   44.1433    7.1341 C.3     1  UNL1        0.0021
     24 C          17.5569   43.8250    5.6521 C.3     1  UNL1        0.0001
@<TRIPOS>BOND
     1    14    15    1
     2    15    13    1
     3    13    12    1
     4    12    11    1
     5     5    11    1
     6     6     7   ar
     7     8     9   ar
     8     8     1    1
     9    10     5   ar
    10     1     3   am
    11    16    20   ar
    12    21    18    1
    13    21    22    1
    14    22    23    1
    15    23    24    1
    16     3    16    1
    17    18    17   ar
    18    18    19   ar
    19     5     6   ar
    20     7     8   ar
    21     9    10   ar
    22     1     2    2
    23    16    17   ar
    24    19    20   ar
    25     3     4    1
@<TRIPOS>MOLECULE
MolPort-001-009-502 4703810 CSSS00121621149 MCULE-8687061856 PubChem-2996968 ZINC000004703810 ZINC04703810
 24 25 0 0 0
SMALL
GASTEIGER

@<TRIPOS>ATOM
      1 C          11.1524   41.1305    9.5462 C.2     1  UNL1        0.2517
      2 O          11.9272   42.0175    9.0945 O.2     1  UNL1       -0.2697
      3 N          11.6799   39.9946   10.2440 N.am    1  UNL1       -0.2480
      4 H          11.0376   39.3275   10.5781 H       1  UNL1        0.1581
      5 C           6.9176   41.5147    8.9963 C.ar    1  UNL1        0.1386
      6 C           7.7225   41.0071    7.9642 C.ar    1  UNL1        0.0370
      7 C           9.1025   40.8816    8.1438 C.ar    1  UNL1        0.0076
      8 C           9.6971   41.2624    9.3551 C.ar    1  UNL1        0.0539
      9 C           8.8910   41.7713   10.3829 C.ar    1  UNL1        0.0076
     10 C           7.5106   41.8967   10.2034 C.ar    1  UNL1        0.0370
     11 O           5.5332   41.6560    8.8479 O.3     1  UNL1       -0.4755
     12 C           4.7806   42.7019    9.4575 C.3     1  UNL1        0.2054
     13 C           3.2848   42.4544    9.3038 C.3     1  UNL1        0.0473
     14 C           3.6542   41.8488   11.6956 C.3     1  UNL1        0.0001
     15 C           2.7264   41.7063   10.5038 C.3     1  UNL1        0.0038
     16 C          13.0689   39.7566   10.4920 C.ar    1  UNL1        0.2619
     17 N          14.0274   39.9481    9.5677 N.ar    1  UNL1       -0.1137
     18 N          15.1348   39.6166   10.2080 N.ar    1  UNL1       -0.1497
     19 N          14.8799   39.2310   11.4466 N.ar    1  UNL1       -0.0438
     20 N          13.5765   39.3124   11.6602 N.ar    1  UNL1       -0.0918
     21 C          16.4571   39.6175    9.6080 C.3     1  UNL1        0.1514
     22 C          17.1106   40.9745    9.8053 C.3     1  UNL1        0.0283
     23 C          17.0608   41.7789    8.5187 C.3     1  UNL1        0.0021
     24 C          17.5016   43.2086    8.7704 C.3     1  UNL1        0.0001
@<TRIPOS>BOND
     1    14    15    1
     2    15    13    1
     3    13    12    1
     4    12    11    1
     5     5    11    1
     6     6     7   ar
     7     8     9   ar
     8     8     1    1
     9    10     5   ar
    10     1     3   am
    11    16    20   ar
    12    21    18    1
    13    21    22    1
    14    22    23    1
    15    23    24    1
    16     3    16    1
    17    18    17   ar
    18    18    19   ar
    19     5     6   ar
    20     7     8   ar
    21     9    10   ar
    22     1     2    2
    23    16    17   ar
    24    19    20   ar
    25     3     4    1
@<TRIPOS>MOLECULE
MolPort-001-009-502 4703810 CSSS00121621149 MCULE-8687061856 PubChem-2996968 ZINC000004703810 ZINC04703810
 24 25 0 0 0
SMALL
GASTEIGER

@<TRIPOS>ATOM
      1 C          10.3622   42.4465    8.9887 C.2     1  UNL1        0.2517
      2 O          10.9229   43.0701    9.9311 O.2     1  UNL1       -0.2697
      3 N          11.1477   41.7486    8.0132 N.am    1  UNL1       -0.2480
      4 H          10.6669   41.2766    7.2954 H       1  UNL1        0.1581
      5 C           6.0846   42.4096    8.6990 C.ar    1  UNL1        0.1386
      6 C           6.7782   43.6273    8.7821 C.ar    1  UNL1        0.0370
      7 C           8.1723   43.6391    8.8761 C.ar    1  UNL1        0.0076
      8 C           8.8919   42.4358    8.8898 C.ar    1  UNL1        0.0539
      9 C           8.1962   41.2214    8.8092 C.ar    1  UNL1        0.0076
     10 C           6.8018   41.2095    8.7150 C.ar    1  UNL1        0.0370
     11 O           4.6889   42.3626    8.6069 O.3     1  UNL1       -0.4755
     12 C           3.8209   43.1412    9.4269 C.3     1  UNL1        0.2054
     13 C           3.0499   42.2536   10.3964 C.3     1  UNL1        0.0473
     14 C           4.0571   40.1915   11.3746 C.3     1  UNL1        0.0001
     15 C           3.3634   40.7844   10.1628 C.3     1  UNL1        0.0038
     16 C          12.5771   41.6857    8.0035 C.ar    1  UNL1        0.2619
     17 N          13.2892   40.9378    8.8656 N.ar    1  UNL1       -0.1137
     18 N          14.5393   41.1705    8.5060 N.ar    1  UNL1       -0.1497
     19 N          14.6011   42.0188    7.4940 N.ar    1  UNL1       -0.0438
     20 N          13.3709   42.3621    7.1480 N.ar    1  UNL1       -0.0918
     21 C          15.6999   40.6126    9.1769 C.3     1  UNL1        0.1514
     22 C          15.3890   39.2057    9.6582 C.3     1  UNL1        0.0283
     23 C          15.6015   39.0994   11.1576 C.3     1  UNL1        0.0021
     24 C          14.3014   38.7413   11.8528 C.3     1  UNL1        0.0001
@<TRIPOS>BOND
     1    14    15    1
     2    15    13    1
     3    13    12    1
     4    12    11    1
     5     5    11    1
     6     6     7   ar
     7     8     9   ar
     8     8     1    1
     9    10     5   ar
    10     1     3   am
    11    16    20   ar
    12    21    18    1
    13    21    22    1
    14    22    23    1
    15    23    24    1
    16     3    16    1
    17    18    17   ar
    18    18    19   ar
    19     5     6   ar
    20     7     8   ar
    21     9    10   ar
    22     1     2    2
    23    16    17   ar
    24    19    20   ar
    25     3     4    1
@<TRIPOS>MOLECULE
MolPort-001-009-502 4703810 CSSS00121621149 MCULE-8687061856 PubChem-2996968 ZINC000004703810 ZINC04703810
 24 25 0 0 0
SMALL
GASTEIGER

@<TRIPOS>ATOM
      1 C          11.4294   40.0452   10.4351 C.2     1  UNL1        0.2517
      2 O          10.7227   39.0806   10.0335 O.2     1  UNL1       -0.2697
      3 N          10.8191   41.1727   11.0770 N.am    1  UNL1       -0.2480
      4 H          11.4100   41.9023   11.3731 H       1  UNL1        0.1581
      5 C          15.6800   39.9503    9.8820 C.ar    1  UNL1        0.1386
      6 C          14.8643   40.6531    8.9813 C.ar    1  UNL1        0.0370
      7 C          13.4791   40.6842    9.1619 C.ar    1  UNL1        0.0076
      8 C          12.8901   40.0132   10.2431 C.ar    1  UNL1        0.0539
      9 C          13.7071   39.3102   11.1393 C.ar    1  UNL1        0.0076
     10 C          15.0927   39.2791   10.9587 C.ar    1  UNL1        0.0370
     11 O          17.0700   39.8967    9.7281 O.3     1  UNL1       -0.4755
     12 C          17.9433   39.2965   10.6815 C.3     1  UNL1        0.2054
     13 C          18.9400   38.3696    9.9961 C.3     1  UNL1        0.0473
     14 C          17.5316   36.4149    9.3486 C.3     1  UNL1        0.0001
     15 C          18.6193   36.9113   10.2823 C.3     1  UNL1        0.0038
     16 C           9.4166   41.3183   11.3201 C.ar    1  UNL1        0.2619
     17 N           8.5179   41.5464   10.3454 N.ar    1  UNL1       -0.1137
     18 N           7.3717   41.6091   11.0001 N.ar    1  UNL1       -0.1497
     19 N           7.5479   41.4437   12.2998 N.ar    1  UNL1       -0.0438
     20 N           8.8358   41.2524   12.5359 N.ar    1  UNL1       -0.0918
     21 C           6.0893   41.8853   10.3777 C.3     1  UNL1        0.1514
     22 C           4.9684   41.3365   11.2437 C.3     1  UNL1        0.0283
     23 C           3.9872   40.5423   10.4003 C.3     1  UNL1        0.0021
     24 C           3.1631   41.4724    9.5299 C.3     1  UNL1        0.0001
@<TRIPOS>BOND
     1    14    15    1
     2    15    13    1
     3    13    12    1
     4    12    11    1
     5     5    11    1
     6     6     7   ar
     7     8     9   ar
     8     8     1    1
     9    10     5   ar
    10     1     3   am
    11    16    20   ar
    12    21    18    1
    13    21    22    1
    14    22    23    1
    15    23    24    1
    16     3    16    1
    17    18    17   ar
    18    18    19   ar
    19     5     6   ar
    20     7     8   ar
    21     9    10   ar
    22     1     2    2
    23    16    17   ar
    24    19    20   ar
    25     3     4    1
