@<TRIPOS>MOLECULE
MolPort-005-165-194 11753843 CHEMBL1715566 CSSS00159587229 MCULE-6731775529 PubChem-24791274 ZINC000011753843
 31 34 0 0 0
SMALL
GASTEIGER

@<TRIPOS>ATOM
      1 C           8.9412   43.1686   10.2062 C.ar    1  UNL1        0.1328
      2 C           9.3486   44.4499    9.8856 C.ar    1  UNL1        0.0565
      3 C          10.7322   44.3361    9.8024 C.ar    1  UNL1        0.1230
      4 N          11.1011   43.0639   10.0611 N.ar    1  UNL1       -0.1666
      5 N          10.0076   42.3626   10.3013 N.ar    1  UNL1       -0.2394
      6 C           9.9809   40.9428   10.6434 C.3     1  UNL1        0.1093
      7 C           9.7094   40.0751    9.4046 C.3     1  UNL1        0.0418
      8 C          10.9671   39.7578    8.5747 C.3     1  UNL1        0.0741
      9 C          12.2810   39.8305   10.5381 C.3     1  UNL1        0.0741
     10 C          11.2471   40.5395   11.4151 C.3     1  UNL1        0.0418
     11 N          12.1859   40.3107    9.1647 N.3     1  UNL1       -0.2725
     12 C          13.3054   39.7483    8.4273 C.3     1  UNL1        0.0724
     13 C          14.5125   40.6749    8.5119 C.3     1  UNL1        0.0220
     14 C          14.3118   41.9313    7.6707 C.3     1  UNL1        0.0278
     15 C          15.5968   42.6599    7.4535 C.ar    1  UNL1       -0.0221
     16 C          16.6875   42.4491    8.3069 C.ar    1  UNL1       -0.0043
     17 C          17.8823   43.1464    8.1020 C.ar    1  UNL1       -0.0003
     18 C          17.9880   44.0565    7.0458 C.ar    1  UNL1       -0.0000
     19 C          16.8988   44.2713    6.1957 C.ar    1  UNL1       -0.0003
     20 C          15.7033   43.5752    6.4006 C.ar    1  UNL1       -0.0043
     21 C           6.6912   42.2783    9.3977 C.2     1  UNL1        0.2506
     22 O           7.0560   42.2479    8.1905 O.2     1  UNL1       -0.2698
     23 N           7.5933   42.7281   10.4180 N.am    1  UNL1       -0.2660
     24 H           7.2581   42.7350   11.3436 H       1  UNL1        0.1566
     25 F           3.6552   39.6493   12.1704 F       1  UNL1       -0.2042
     26 C           3.8389   40.5293   11.1574 C.ar    1  UNL1        0.1403
     27 C           2.7374   41.0280   10.4569 C.ar    1  UNL1        0.0296
     28 C           2.9272   41.9349    9.4108 C.ar    1  UNL1        0.0025
     29 C           4.2189   42.3431    9.0654 C.ar    1  UNL1        0.0047
     30 C           5.3303   41.8472    9.7627 C.ar    1  UNL1        0.0559
     31 C           5.1305   40.9365   10.8112 C.ar    1  UNL1        0.0342
@<TRIPOS>BOND
     1    26    25    1
     2    27    28   ar
     3    29    30   ar
     4    30    21    1
     5    31    26   ar
     6    21    23   am
     7     2     3   ar
     8     6     5    1
     9     6     7    1
    10     7     8    1
    11     8    11    1
    12    12    11    1
    13    12    13    1
    14    13    14    1
    15    14    15    1
    16    16    17   ar
    17    18    19   ar
    18    20    15   ar
    19     9    11    1
    20     9    10    1
    21    10     6    1
    22    23     1    1
    23     5     4   ar
    24     5     1   ar
    25    26    27   ar
    26    28    29   ar
    27    30    31   ar
    28    21    22    2
    29     1     2   ar
    30     3     4   ar
    31    15    16   ar
    32    17    18   ar
    33    19    20   ar
    34    23    24    1
@<TRIPOS>MOLECULE
MolPort-005-165-194 11753843 CHEMBL1715566 CSSS00159587229 MCULE-6731775529 PubChem-24791274 ZINC000011753843
 31 34 0 0 0
SMALL
GASTEIGER

@<TRIPOS>ATOM
      1 C          11.3753   41.2628    6.4856 C.ar    1  UNL1        0.1328
      2 C          11.0930   40.7119    5.2497 C.ar    1  UNL1        0.0565
      3 C           9.7101   40.8268    5.1548 C.ar    1  UNL1        0.1230
      4 N           9.2236   41.4087    6.2711 N.ar    1  UNL1       -0.1666
      5 N          10.2415   41.6728    7.0707 N.ar    1  UNL1       -0.2394
      6 C          10.1322   42.2870    8.3915 C.3     1  UNL1        0.1093
      7 C           9.2062   41.4745    9.3100 C.3     1  UNL1        0.0418
      8 C           9.9019   40.2962   10.0163 C.3     1  UNL1        0.0741
      9 C          11.9343   41.5029   10.0273 C.3     1  UNL1        0.0741
     10 C          11.5219   42.5508    8.9917 C.3     1  UNL1        0.0418
     11 N          11.3290   40.2160    9.7056 N.3     1  UNL1       -0.2725
     12 C          11.9024   39.2273   10.6038 C.3     1  UNL1        0.0724
     13 C          13.2217   39.7341   11.1743 C.3     1  UNL1        0.0220
     14 C          14.0624   38.5921   11.7358 C.3     1  UNL1        0.0278
     15 C          14.3341   37.5486   10.7030 C.ar    1  UNL1       -0.0221
     16 C          15.3142   37.7548    9.7235 C.ar    1  UNL1       -0.0043
     17 C          15.5517   36.7762    8.7532 C.ar    1  UNL1       -0.0003
     18 C          14.8088   35.5916    8.7589 C.ar    1  UNL1       -0.0000
     19 C          13.8271   35.3861    9.7332 C.ar    1  UNL1       -0.0003
     20 C          13.5883   36.3648   10.7033 C.ar    1  UNL1       -0.0043
     21 C          13.7137   42.2699    6.6476 C.2     1  UNL1        0.2506
     22 O          13.5393   43.0170    5.6462 O.2     1  UNL1       -0.2698
     23 N          12.6697   41.3910    7.0887 N.am    1  UNL1       -0.2660
     24 H          12.8582   40.8271    7.8733 H       1  UNL1        0.1566
     25 F          18.0818   44.2781    7.4862 F       1  UNL1       -0.2042
     26 C          17.1673   43.3203    7.7701 C.ar    1  UNL1        0.1403
     27 C          17.4416   42.3605    8.7481 C.ar    1  UNL1        0.0296
     28 C          16.4985   41.3716    9.0399 C.ar    1  UNL1        0.0025
     29 C          15.2809   41.3425    8.3537 C.ar    1  UNL1        0.0047
     30 C          14.9975   42.3015    7.3702 C.ar    1  UNL1        0.0559
     31 C          15.9504   43.2905    7.0831 C.ar    1  UNL1        0.0342
@<TRIPOS>BOND
     1    26    25    1
     2    27    28   ar
     3    29    30   ar
     4    30    21    1
     5    31    26   ar
     6    21    23   am
     7     2     3   ar
     8     6     5    1
     9     6     7    1
    10     7     8    1
    11     8    11    1
    12    12    11    1
    13    12    13    1
    14    13    14    1
    15    14    15    1
    16    16    17   ar
    17    18    19   ar
    18    20    15   ar
    19     9    11    1
    20     9    10    1
    21    10     6    1
    22    23     1    1
    23     5     4   ar
    24     5     1   ar
    25    26    27   ar
    26    28    29   ar
    27    30    31   ar
    28    21    22    2
    29     1     2   ar
    30     3     4   ar
    31    15    16   ar
    32    17    18   ar
    33    19    20   ar
    34    23    24    1
@<TRIPOS>MOLECULE
MolPort-005-165-194 11753843 CHEMBL1715566 CSSS00159587229 MCULE-6731775529 PubChem-24791274 ZINC000011753843
 31 34 0 0 0
SMALL
GASTEIGER

@<TRIPOS>ATOM
      1 C          11.8793   41.1086    6.3239 C.ar    1  UNL1        0.1328
      2 C          10.9716   41.6788    5.4513 C.ar    1  UNL1        0.0565
      3 C           9.8242   40.9149    5.6361 C.ar    1  UNL1        0.1230
      4 N          10.0571   39.9592    6.5603 N.ar    1  UNL1       -0.1666
      5 N          11.3052   40.0872    6.9742 N.ar    1  UNL1       -0.2394
      6 C          11.9527   39.2277    7.9620 C.3     1  UNL1        0.1093
      7 C          12.9532   40.0182    8.8195 C.3     1  UNL1        0.0418
      8 C          12.3126   40.7517   10.0124 C.3     1  UNL1        0.0741
      9 C          10.6644   39.0644   10.1647 C.3     1  UNL1        0.0741
     10 C          10.9107   38.4532    8.7840 C.3     1  UNL1        0.0418
     11 N          10.8745   40.5065   10.1184 N.3     1  UNL1       -0.2725
     12 C          10.4459   41.0511   11.3962 C.3     1  UNL1        0.0724
     13 C           9.5644   42.2755   11.1794 C.3     1  UNL1        0.0220
     14 C           8.1066   41.8825   10.9632 C.3     1  UNL1        0.0278
     15 C           7.6510   42.1976    9.5767 C.ar    1  UNL1       -0.0221
     16 C           7.1475   41.1880    8.7463 C.ar    1  UNL1       -0.0043
     17 C           6.7354   41.4920    7.4449 C.ar    1  UNL1       -0.0003
     18 C           6.8280   42.8042    6.9710 C.ar    1  UNL1       -0.0000
     19 C           7.3345   43.8123    7.7972 C.ar    1  UNL1       -0.0003
     20 C           7.7478   43.5089    9.0983 C.ar    1  UNL1       -0.0043
     21 C          13.7426   42.8502    6.3865 C.2     1  UNL1        0.2506
     22 O          12.9723   43.7910    6.0507 O.2     1  UNL1       -0.2698
     23 N          13.2389   41.5149    6.5290 N.am    1  UNL1       -0.2660
     24 H          13.8823   40.8170    6.7901 H       1  UNL1        0.1566
     25 F          17.8148   42.1926    8.9944 F       1  UNL1       -0.2042
     26 C          17.1837   42.7801    7.9499 C.ar    1  UNL1        0.1403
     27 C          17.8850   43.6481    7.1087 C.ar    1  UNL1        0.0296
     28 C          17.2334   44.2552    6.0319 C.ar    1  UNL1        0.0025
     29 C          15.8803   43.9941    5.7963 C.ar    1  UNL1        0.0047
     30 C          15.1686   43.1247    6.6359 C.ar    1  UNL1        0.0559
     31 C          15.8306   42.5200    7.7151 C.ar    1  UNL1        0.0342
@<TRIPOS>BOND
     1    26    25    1
     2    27    28   ar
     3    29    30   ar
     4    30    21    1
     5    31    26   ar
     6    21    23   am
     7     2     3   ar
     8     6     5    1
     9     6     7    1
    10     7     8    1
    11     8    11    1
    12    12    11    1
    13    12    13    1
    14    13    14    1
    15    14    15    1
    16    16    17   ar
    17    18    19   ar
    18    20    15   ar
    19     9    11    1
    20     9    10    1
    21    10     6    1
    22    23     1    1
    23     5     4   ar
    24     5     1   ar
    25    26    27   ar
    26    28    29   ar
    27    30    31   ar
    28    21    22    2
    29     1     2   ar
    30     3     4   ar
    31    15    16   ar
    32    17    18   ar
    33    19    20   ar
    34    23    24    1
@<TRIPOS>MOLECULE
MolPort-005-165-194 11753843 CHEMBL1715566 CSSS00159587229 MCULE-6731775529 PubChem-24791274 ZINC000011753843
 31 34 0 0 0
SMALL
GASTEIGER

@<TRIPOS>ATOM
      1 C          12.0952   39.2291    8.2101 C.ar    1  UNL1        0.1328
      2 C          10.8891   39.1332    7.5418 C.ar    1  UNL1        0.0565
      3 C          10.1835   38.1928    8.2850 C.ar    1  UNL1        0.1230
      4 N          10.9392   37.7703    9.3205 N.ar    1  UNL1       -0.1666
      5 N          12.0955   38.4073    9.2686 N.ar    1  UNL1       -0.2394
      6 C          13.2004   38.2156   10.2046 C.3     1  UNL1        0.1093
      7 C          13.1394   36.8289   10.8638 C.3     1  UNL1        0.0418
      8 C          13.7774   35.7075   10.0232 C.3     1  UNL1        0.0741
      9 C          15.3047   37.2622    9.1084 C.3     1  UNL1        0.0741
     10 C          14.5485   38.5223    9.5338 C.3     1  UNL1        0.0418
     11 N          14.3619   36.2008    8.7764 N.3     1  UNL1       -0.2725
     12 C          15.1241   35.1035    8.2036 C.3     1  UNL1        0.0724
     13 C          16.3158   35.6407    7.4200 C.3     1  UNL1        0.0220
     14 C          16.6156   34.7777    6.1986 C.3     1  UNL1        0.0278
     15 C          17.0460   35.6045    5.0322 C.ar    1  UNL1       -0.0221
     16 C          18.3176   36.1916    5.0065 C.ar    1  UNL1       -0.0043
     17 C          18.7057   36.9747    3.9147 C.ar    1  UNL1       -0.0003
     18 C          17.8232   37.1739    2.8487 C.ar    1  UNL1       -0.0000
     19 C          16.5519   36.5922    2.8748 C.ar    1  UNL1       -0.0003
     20 C          16.1626   35.8099    3.9668 C.ar    1  UNL1       -0.0043
     21 C          13.1762   41.4955    7.7589 C.2     1  UNL1        0.2506
     22 O          12.1112   42.1302    7.9914 O.2     1  UNL1       -0.2698
     23 N          13.2049   40.0648    7.8552 N.am    1  UNL1       -0.2660
     24 H          14.0603   39.6180    7.6609 H       1  UNL1        0.1566
     25 F          17.9173   42.4664    8.3886 F       1  UNL1       -0.2042
     26 C          16.7614   42.6937    7.7202 C.ar    1  UNL1        0.1403
     27 C          16.7284   43.6246    6.6786 C.ar    1  UNL1        0.0296
     28 C          15.5354   43.8600    5.9900 C.ar    1  UNL1        0.0025
     29 C          14.3755   43.1642    6.3431 C.ar    1  UNL1        0.0047
     30 C          14.3995   42.2284    7.3877 C.ar    1  UNL1        0.0559
     31 C          15.6014   41.9988    8.0741 C.ar    1  UNL1        0.0342
@<TRIPOS>BOND
     1    26    25    1
     2    27    28   ar
     3    29    30   ar
     4    30    21    1
     5    31    26   ar
     6    21    23   am
     7     2     3   ar
     8     6     5    1
     9     6     7    1
    10     7     8    1
    11     8    11    1
    12    12    11    1
    13    12    13    1
    14    13    14    1
    15    14    15    1
    16    16    17   ar
    17    18    19   ar
    18    20    15   ar
    19     9    11    1
    20     9    10    1
    21    10     6    1
    22    23     1    1
    23     5     4   ar
    24     5     1   ar
    25    26    27   ar
    26    28    29   ar
    27    30    31   ar
    28    21    22    2
    29     1     2   ar
    30     3     4   ar
    31    15    16   ar
    32    17    18   ar
    33    19    20   ar
    34    23    24    1
@<TRIPOS>MOLECULE
MolPort-005-165-194 11753843 CHEMBL1715566 CSSS00159587229 MCULE-6731775529 PubChem-24791274 ZINC000011753843
 31 34 0 0 0
SMALL
GASTEIGER

@<TRIPOS>ATOM
      1 C           9.5727   41.4340   10.7456 C.ar    1  UNL1        0.1328
      2 C           9.8211   41.5187   12.1027 C.ar    1  UNL1        0.0565
      3 C          10.9149   40.6787   12.2825 C.ar    1  UNL1        0.1230
      4 N          11.2754   40.1403   11.0985 N.ar    1  UNL1       -0.1666
      5 N          10.4577   40.6072   10.1718 N.ar    1  UNL1       -0.2394
      6 C          10.5031   40.2489    8.7565 C.3     1  UNL1        0.1093
      7 C          10.8522   41.4647    7.8839 C.3     1  UNL1        0.0418
      8 C          12.3629   41.7396    7.7688 C.3     1  UNL1        0.0741
      9 C          12.8006   39.4274    7.9912 C.3     1  UNL1        0.0741
     10 C          11.4207   39.0382    8.5252 C.3     1  UNL1        0.0418
     11 N          13.1716   40.7500    8.4803 N.3     1  UNL1       -0.2725
     12 C          14.5554   40.9831    8.1009 C.3     1  UNL1        0.0724
     13 C          15.4926   40.5146    9.2077 C.3     1  UNL1        0.0220
     14 C          16.8283   41.2491    9.1562 C.3     1  UNL1        0.0278
     15 C          16.8049   42.3661    8.1655 C.ar    1  UNL1       -0.0221
     16 C          15.6545   42.6217    7.4082 C.ar    1  UNL1       -0.0043
     17 C          15.6477   43.6623    6.4740 C.ar    1  UNL1       -0.0003
     18 C          16.7908   44.4471    6.2937 C.ar    1  UNL1       -0.0000
     19 C          17.9414   44.1904    7.0458 C.ar    1  UNL1       -0.0003
     20 C          17.9493   43.1492    7.9794 C.ar    1  UNL1       -0.0043
     21 C           7.1511   42.1587   10.4004 C.2     1  UNL1        0.2506
     22 O           6.7525   41.5765   11.4461 O.2     1  UNL1       -0.2698
     23 N           8.5338   42.1081   10.0231 N.am    1  UNL1       -0.2660
     24 H           8.7919   42.5767    9.1966 H       1  UNL1        0.1566
     25 F           2.5871   43.0220    8.9032 F       1  UNL1       -0.2042
     26 C           3.9089   43.3090    8.8334 C.ar    1  UNL1        0.1403
     27 C           4.3624   44.3054    7.9647 C.ar    1  UNL1        0.0296
     28 C           5.7262   44.6005    7.8918 C.ar    1  UNL1        0.0025
     29 C           6.6367   43.8992    8.6877 C.ar    1  UNL1        0.0047
     30 C           6.1904   42.8972    9.5619 C.ar    1  UNL1        0.0559
     31 C           4.8194   42.6070    9.6283 C.ar    1  UNL1        0.0342
@<TRIPOS>BOND
     1    26    25    1
     2    27    28   ar
     3    29    30   ar
     4    30    21    1
     5    31    26   ar
     6    21    23   am
     7     2     3   ar
     8     6     5    1
     9     6     7    1
    10     7     8    1
    11     8    11    1
    12    12    11    1
    13    12    13    1
    14    13    14    1
    15    14    15    1
    16    16    17   ar
    17    18    19   ar
    18    20    15   ar
    19     9    11    1
    20     9    10    1
    21    10     6    1
    22    23     1    1
    23     5     4   ar
    24     5     1   ar
    25    26    27   ar
    26    28    29   ar
    27    30    31   ar
    28    21    22    2
    29     1     2   ar
    30     3     4   ar
    31    15    16   ar
    32    17    18   ar
    33    19    20   ar
    34    23    24    1
@<TRIPOS>MOLECULE
MolPort-005-165-194 11753843 CHEMBL1715566 CSSS00159587229 MCULE-6731775529 PubChem-24791274 ZINC000011753843
 31 34 0 0 0
SMALL
GASTEIGER

@<TRIPOS>ATOM
      1 C           9.6491   41.0003    9.4502 C.ar    1  UNL1        0.1328
      2 C           8.6967   41.9310    9.8207 C.ar    1  UNL1        0.0565
      3 C           8.7607   41.9210   11.2100 C.ar    1  UNL1        0.1230
      4 N           9.6944   41.0354   11.6168 N.ar    1  UNL1       -0.1666
      5 N          10.2303   40.4847   10.5421 N.ar    1  UNL1       -0.2394
      6 C          11.2690   39.4578   10.5562 C.3     1  UNL1        0.1093
      7 C          11.3751   38.7525    9.1950 C.3     1  UNL1        0.0418
      8 C          12.2526   39.4964    8.1714 C.3     1  UNL1        0.0741
      9 C          13.5833   40.3469    9.9300 C.3     1  UNL1        0.0741
     10 C          12.6023   40.0313   11.0608 C.3     1  UNL1        0.0418
     11 N          12.8535   40.7113    8.7215 N.3     1  UNL1       -0.2725
     12 C          13.8268   41.1795    7.7485 C.3     1  UNL1        0.0724
     13 C          13.2824   42.3883    6.9966 C.3     1  UNL1        0.0220
     14 C          14.3110   42.9469    6.0186 C.3     1  UNL1        0.0278
     15 C          15.6283   43.1841    6.6804 C.ar    1  UNL1       -0.0221
     16 C          16.0202   42.4131    7.7823 C.ar    1  UNL1       -0.0043
     17 C          17.2506   42.6523    8.4025 C.ar    1  UNL1       -0.0003
     18 C          18.0897   43.6633    7.9240 C.ar    1  UNL1       -0.0000
     19 C          17.6979   44.4367    6.8268 C.ar    1  UNL1       -0.0003
     20 C          16.4671   44.1988    6.2068 C.ar    1  UNL1       -0.0043
     21 C           9.0646   40.1871    7.1038 C.2     1  UNL1        0.2506
     22 O           7.8302   40.1239    7.3555 O.2     1  UNL1       -0.2698
     23 N           9.9907   40.6130    8.1127 N.am    1  UNL1       -0.2660
     24 H          10.9432   40.6419    7.8655 H       1  UNL1        0.1566
     25 F           9.4110   37.0201    3.4069 F       1  UNL1       -0.2042
     26 C           9.7154   38.2290    3.9362 C.ar    1  UNL1        0.1403
     27 C          10.4996   39.1312    3.2123 C.ar    1  UNL1        0.0296
     28 C          10.8147   40.3778    3.7592 C.ar    1  UNL1        0.0025
     29 C          10.3457   40.7223    5.0303 C.ar    1  UNL1        0.0047
     30 C           9.5586   39.8228    5.7642 C.ar    1  UNL1        0.0559
     31 C           9.2474   38.5730    5.2076 C.ar    1  UNL1        0.0342
@<TRIPOS>BOND
     1    26    25    1
     2    27    28   ar
     3    29    30   ar
     4    30    21    1
     5    31    26   ar
     6    21    23   am
     7     2     3   ar
     8     6     5    1
     9     6     7    1
    10     7     8    1
    11     8    11    1
    12    12    11    1
    13    12    13    1
    14    13    14    1
    15    14    15    1
    16    16    17   ar
    17    18    19   ar
    18    20    15   ar
    19     9    11    1
    20     9    10    1
    21    10     6    1
    22    23     1    1
    23     5     4   ar
    24     5     1   ar
    25    26    27   ar
    26    28    29   ar
    27    30    31   ar
    28    21    22    2
    29     1     2   ar
    30     3     4   ar
    31    15    16   ar
    32    17    18   ar
    33    19    20   ar
    34    23    24    1
@<TRIPOS>MOLECULE
MolPort-005-165-194 11753843 CHEMBL1715566 CSSS00159587229 MCULE-6731775529 PubChem-24791274 ZINC000011753843
 31 34 0 0 0
SMALL
GASTEIGER

@<TRIPOS>ATOM
      1 C           9.2644   41.0886   10.3086 C.ar    1  UNL1        0.1328
      2 C           9.9010   41.5252   11.4552 C.ar    1  UNL1        0.0565
      3 C          11.2058   41.0726   11.2908 C.ar    1  UNL1        0.1230
      4 N          11.3148   40.4126   10.1185 N.ar    1  UNL1       -0.1666
      5 N          10.1329   40.4308    9.5284 N.ar    1  UNL1       -0.2394
      6 C           9.8278   39.8049    8.2444 C.3     1  UNL1        0.1093
      7 C           9.2425   40.8223    7.2525 C.3     1  UNL1        0.0418
      8 C          10.3047   41.6420    6.4968 C.3     1  UNL1        0.0741
      9 C          11.7997   39.8151    6.6166 C.3     1  UNL1        0.0741
     10 C          11.0463   39.0426    7.7010 C.3     1  UNL1        0.0418
     11 N          11.6707   41.2497    6.8429 N.3     1  UNL1       -0.2725
     12 C          12.5541   41.9209    5.9036 C.3     1  UNL1        0.0724
     13 C          13.1804   43.1492    6.5530 C.3     1  UNL1        0.0220
     14 C          14.4736   43.5530    5.8521 C.3     1  UNL1        0.0278
     15 C          15.6600   43.3780    6.7416 C.ar    1  UNL1       -0.0221
     16 C          16.7597   44.2399    6.6390 C.ar    1  UNL1       -0.0043
     17 C          17.8711   44.0591    7.4684 C.ar    1  UNL1       -0.0003
     18 C          17.8861   43.0161    8.3994 C.ar    1  UNL1       -0.0000
     19 C          16.7910   42.1523    8.5000 C.ar    1  UNL1       -0.0003
     20 C          15.6797   42.3317    7.6702 C.ar    1  UNL1       -0.0043
     21 C           6.8087   41.4397   10.9043 C.2     1  UNL1        0.2506
     22 O           7.0307   41.4064   12.1456 O.2     1  UNL1       -0.2698
     23 N           7.8852   41.2847    9.9694 N.am    1  UNL1       -0.2660
     24 H           7.6575   41.3156    9.0121 H       1  UNL1        0.1566
     25 F           3.4845   44.1042    8.5238 F       1  UNL1       -0.2042
     26 C           3.7980   42.9856    9.2200 C.ar    1  UNL1        0.1403
     27 C           2.8177   42.0220    9.4721 C.ar    1  UNL1        0.0296
     28 C           3.1410   40.8686   10.1916 C.ar    1  UNL1        0.0025
     29 C           4.4448   40.6787   10.6590 C.ar    1  UNL1        0.0047
     30 C           5.4348   41.6409   10.4112 C.ar    1  UNL1        0.0559
     31 C           5.1013   42.7963    9.6884 C.ar    1  UNL1        0.0342
@<TRIPOS>BOND
     1    26    25    1
     2    27    28   ar
     3    29    30   ar
     4    30    21    1
     5    31    26   ar
     6    21    23   am
     7     2     3   ar
     8     6     5    1
     9     6     7    1
    10     7     8    1
    11     8    11    1
    12    12    11    1
    13    12    13    1
    14    13    14    1
    15    14    15    1
    16    16    17   ar
    17    18    19   ar
    18    20    15   ar
    19     9    11    1
    20     9    10    1
    21    10     6    1
    22    23     1    1
    23     5     4   ar
    24     5     1   ar
    25    26    27   ar
    26    28    29   ar
    27    30    31   ar
    28    21    22    2
    29     1     2   ar
    30     3     4   ar
    31    15    16   ar
    32    17    18   ar
    33    19    20   ar
    34    23    24    1
@<TRIPOS>MOLECULE
MolPort-005-165-194 11753843 CHEMBL1715566 CSSS00159587229 MCULE-6731775529 PubChem-24791274 ZINC000011753843
 31 34 0 0 0
SMALL
GASTEIGER

@<TRIPOS>ATOM
      1 C           9.7110   41.6600    9.1202 C.ar    1  UNL1        0.1328
      2 C           9.1951   42.9306    9.2931 C.ar    1  UNL1        0.0565
      3 C           9.5612   43.2518   10.5959 C.ar    1  UNL1        0.1230
      4 N          10.2469   42.2258   11.1425 N.ar    1  UNL1       -0.1666
      5 N          10.3357   41.2665   10.2386 N.ar    1  UNL1       -0.2394
      6 C          10.9880   39.9763   10.4473 C.3     1  UNL1        0.1093
      7 C          11.2598   39.2658    9.1121 C.3     1  UNL1        0.0418
      8 C          12.5623   39.7094    8.4208 C.3     1  UNL1        0.0741
      9 C          13.5390   40.1310   10.5316 C.3     1  UNL1        0.0741
     10 C          12.2352   40.1276   11.3320 C.3     1  UNL1        0.0418
     11 N          13.3104   40.6916    9.2051 N.3     1  UNL1       -0.2725
     12 C          14.6073   40.8436    8.5662 C.3     1  UNL1        0.0724
     13 C          15.6977   40.2205    9.4297 C.3     1  UNL1        0.0220
     14 C          16.9482   41.0930    9.4654 C.3     1  UNL1        0.0278
     15 C          16.8857   42.1871    8.4512 C.ar    1  UNL1       -0.0221
     16 C          17.9326   43.1106    8.3351 C.ar    1  UNL1       -0.0043
     17 C          17.8579   44.1390    7.3904 C.ar    1  UNL1       -0.0003
     18 C          16.7364   44.2474    6.5624 C.ar    1  UNL1       -0.0000
     19 C          15.6886   43.3290    6.6801 C.ar    1  UNL1       -0.0003
     20 C          15.7620   42.3008    7.6253 C.ar    1  UNL1       -0.0043
     21 C          10.2547   41.1162    6.6877 C.2     1  UNL1        0.2506
     22 O          10.9819   42.1374    6.5470 O.2     1  UNL1       -0.2698
     23 N           9.6110   40.8501    7.9413 N.am    1  UNL1       -0.2660
     24 H           9.0523   40.0414    7.9973 H       1  UNL1        0.1566
     25 F          12.0720   38.2004    3.2217 F       1  UNL1       -0.2042
     26 C          10.9960   38.7427    3.8402 C.ar    1  UNL1        0.1403
     27 C           9.7065   38.4244    3.4057 C.ar    1  UNL1        0.0296
     28 C           8.5965   38.9850    4.0430 C.ar    1  UNL1        0.0025
     29 C           8.7761   39.8641    5.1151 C.ar    1  UNL1        0.0047
     30 C          10.0667   40.1896    5.5574 C.ar    1  UNL1        0.0559
     31 C          11.1756   39.6226    4.9114 C.ar    1  UNL1        0.0342
@<TRIPOS>BOND
     1    26    25    1
     2    27    28   ar
     3    29    30   ar
     4    30    21    1
     5    31    26   ar
     6    21    23   am
     7     2     3   ar
     8     6     5    1
     9     6     7    1
    10     7     8    1
    11     8    11    1
    12    12    11    1
    13    12    13    1
    14    13    14    1
    15    14    15    1
    16    16    17   ar
    17    18    19   ar
    18    20    15   ar
    19     9    11    1
    20     9    10    1
    21    10     6    1
    22    23     1    1
    23     5     4   ar
    24     5     1   ar
    25    26    27   ar
    26    28    29   ar
    27    30    31   ar
    28    21    22    2
    29     1     2   ar
    30     3     4   ar
    31    15    16   ar
    32    17    18   ar
    33    19    20   ar
    34    23    24    1
@<TRIPOS>MOLECULE
MolPort-005-165-194 11753843 CHEMBL1715566 CSSS00159587229 MCULE-6731775529 PubChem-24791274 ZINC000011753843
 31 34 0 0 0
SMALL
GASTEIGER

@<TRIPOS>ATOM
      1 C          12.4355   39.9242    8.6944 C.ar    1  UNL1        0.1328
      2 C          12.4737   38.6067    8.2783 C.ar    1  UNL1        0.0565
      3 C          11.6558   37.9558    9.1957 C.ar    1  UNL1        0.1230
      4 N          11.1751   38.8458   10.0893 N.ar    1  UNL1       -0.1666
      5 N          11.6507   40.0375    9.7748 N.ar    1  UNL1       -0.2394
      6 C          11.3802   41.2690   10.5122 C.3     1  UNL1        0.1093
      7 C          11.1673   42.4552    9.5589 C.3     1  UNL1        0.0418
      8 C           9.7308   42.5725    9.0167 C.3     1  UNL1        0.0741
      9 C           8.8988   41.6256   11.0162 C.3     1  UNL1        0.0741
     10 C          10.2334   41.0685   11.5152 C.3     1  UNL1        0.0418
     11 N           8.8376   41.5502    9.5614 N.3     1  UNL1       -0.2725
     12 C           7.4875   41.9122    9.1620 C.3     1  UNL1        0.0724
     13 C           7.0250   41.0329    8.0062 C.3     1  UNL1        0.0220
     14 C           7.4571   41.6069    6.6607 C.3     1  UNL1        0.0278
     15 C           8.5956   40.8391    6.0744 C.ar    1  UNL1       -0.0221
     16 C           8.5067   39.4511    5.9068 C.ar    1  UNL1       -0.0043
     17 C           9.5838   38.7401    5.3684 C.ar    1  UNL1       -0.0003
     18 C          10.7517   39.4145    4.9990 C.ar    1  UNL1       -0.0000
     19 C          10.8436   40.7993    5.1697 C.ar    1  UNL1       -0.0003
     20 C           9.7673   41.5109    5.7091 C.ar    1  UNL1       -0.0043
     21 C          14.5358   41.2579    8.1301 C.2     1  UNL1        0.2506
     22 O          15.2965   40.4514    8.7320 O.2     1  UNL1       -0.2698
     23 N          13.1202   41.0308    8.0926 N.am    1  UNL1       -0.2660
     24 H          12.5712   41.6919    7.6121 H       1  UNL1        0.1566
     25 F          18.2202   44.3698    7.3832 F       1  UNL1       -0.2042
     26 C          16.9548   43.9757    7.1041 C.ar    1  UNL1        0.1403
     27 C          16.1881   44.6912    6.1805 C.ar    1  UNL1        0.0296
     28 C          14.8821   44.2852    5.8937 C.ar    1  UNL1        0.0025
     29 C          14.3429   43.1636    6.5306 C.ar    1  UNL1        0.0047
     30 C          15.1052   42.4400    7.4594 C.ar    1  UNL1        0.0559
     31 C          16.4153   42.8550    7.7419 C.ar    1  UNL1        0.0342
@<TRIPOS>BOND
     1    26    25    1
     2    27    28   ar
     3    29    30   ar
     4    30    21    1
     5    31    26   ar
     6    21    23   am
     7     2     3   ar
     8     6     5    1
     9     6     7    1
    10     7     8    1
    11     8    11    1
    12    12    11    1
    13    12    13    1
    14    13    14    1
    15    14    15    1
    16    16    17   ar
    17    18    19   ar
    18    20    15   ar
    19     9    11    1
    20     9    10    1
    21    10     6    1
    22    23     1    1
    23     5     4   ar
    24     5     1   ar
    25    26    27   ar
    26    28    29   ar
    27    30    31   ar
    28    21    22    2
    29     1     2   ar
    30     3     4   ar
    31    15    16   ar
    32    17    18   ar
    33    19    20   ar
    34    23    24    1
@<TRIPOS>MOLECULE
MolPort-005-165-194 11753843 CHEMBL1715566 CSSS00159587229 MCULE-6731775529 PubChem-24791274 ZINC000011753843
 31 34 0 0 0
SMALL
GASTEIGER

@<TRIPOS>ATOM
      1 C          12.4120   39.9001    8.4393 C.ar    1  UNL1        0.1328
      2 C          11.3130   39.5048    7.7001 C.ar    1  UNL1        0.0565
      3 C          10.7050   38.5530    8.5118 C.ar    1  UNL1        0.1230
      4 N          11.4128   38.4072    9.6517 N.ar    1  UNL1       -0.1666
      5 N          12.4442   39.2311    9.6000 N.ar    1  UNL1       -0.2394
      6 C          13.4655   39.3611   10.6362 C.3     1  UNL1        0.1093
      7 C          13.6220   38.0563   11.4326 C.3     1  UNL1        0.0418
      8 C          14.5558   37.0266   10.7700 C.3     1  UNL1        0.0741
      9 C          15.8188   38.7839    9.8193 C.3     1  UNL1        0.0741
     10 C          14.7833   39.8870   10.0462 C.3     1  UNL1        0.0418
     11 N          15.1497   37.5215    9.5282 N.3     1  UNL1       -0.2725
     12 C          16.1726   36.5652    9.1383 C.3     1  UNL1        0.0724
     13 C          15.5733   35.4855    8.2451 C.3     1  UNL1        0.0220
     14 C          16.0459   34.0948    8.6565 C.3     1  UNL1        0.0278
     15 C          15.5511   33.0447    7.7174 C.ar    1  UNL1       -0.0221
     16 C          14.7376   32.0023    8.1800 C.ar    1  UNL1       -0.0043
     17 C          14.2904   31.0169    7.2942 C.ar    1  UNL1       -0.0003
     18 C          14.6571   31.0705    5.9460 C.ar    1  UNL1       -0.0000
     19 C          15.4727   32.1079    5.4836 C.ar    1  UNL1       -0.0003
     20 C          15.9213   33.0931    6.3690 C.ar    1  UNL1       -0.0043
     21 C          13.2108   41.9070    7.0818 C.2     1  UNL1        0.2506
     22 O          12.1127   42.0224    6.4718 O.2     1  UNL1       -0.2698
     23 N          13.3948   40.8715    8.0569 N.am    1  UNL1       -0.2660
     24 H          14.2716   40.8235    8.5020 H       1  UNL1        0.1566
     25 F          17.8320   43.3618    7.6693 F       1  UNL1       -0.2042
     26 C          16.6169   43.5468    7.1003 C.ar    1  UNL1        0.1403
     27 C          16.4061   44.6269    6.2390 C.ar    1  UNL1        0.0296
     28 C          15.1521   44.8184    5.6532 C.ar    1  UNL1        0.0025
     29 C          14.1087   43.9297    5.9286 C.ar    1  UNL1        0.0047
     30 C          14.3113   42.8433    6.7923 C.ar    1  UNL1        0.0559
     31 C          15.5734   42.6588    7.3767 C.ar    1  UNL1        0.0342
@<TRIPOS>BOND
     1    26    25    1
     2    27    28   ar
     3    29    30   ar
     4    30    21    1
     5    31    26   ar
     6    21    23   am
     7     2     3   ar
     8     6     5    1
     9     6     7    1
    10     7     8    1
    11     8    11    1
    12    12    11    1
    13    12    13    1
    14    13    14    1
    15    14    15    1
    16    16    17   ar
    17    18    19   ar
    18    20    15   ar
    19     9    11    1
    20     9    10    1
    21    10     6    1
    22    23     1    1
    23     5     4   ar
    24     5     1   ar
    25    26    27   ar
    26    28    29   ar
    27    30    31   ar
    28    21    22    2
    29     1     2   ar
    30     3     4   ar
    31    15    16   ar
    32    17    18   ar
    33    19    20   ar
    34    23    24    1
