@<TRIPOS>MOLECULE
Molport-052-053-752 MCULE-2490986970
 35 38 0 0 0
SMALL
GASTEIGER

@<TRIPOS>ATOM
      1 C           9.1998   41.3193    7.3434 C.3     1  UNL1        0.0603
      2 C           8.6607   41.3140    5.9091 C.3     1  UNL1        0.0094
      3 C           7.1558   41.6150    5.8204 C.3     1  UNL1        0.0219
      4 C           6.5162   41.8709    7.1841 C.3     1  UNL1        0.0935
      5 C           6.7570   44.0228    8.5083 C.2     1  UNL1        0.2400
      6 C           8.7660   42.5852    8.0863 C.3     1  UNL1        0.0993
      7 N           7.3252   42.8237    7.9450 N.am    1  UNL1       -0.2781
      8 O           7.5213   44.9118    8.9705 O.2     1  UNL1       -0.2734
      9 C          12.8456   41.8761    6.5740 C.ar    1  UNL1        0.1361
     10 C          11.4588   42.0209    6.5514 C.ar    1  UNL1        0.0492
     11 C          10.6857   41.1821    7.3537 C.ar    1  UNL1        0.0644
     12 C          12.6431   40.1176    8.1462 C.ar    1  UNL1        0.1406
     13 C          13.2840   39.0883    9.0050 C.3     1  UNL1        0.0737
     14 N          11.2911   40.2463    8.1349 N.ar    1  UNL1       -0.2348
     15 N          13.4098   40.9278    7.3707 N.ar    1  UNL1       -0.2159
     16 N          13.6504   42.7318    5.7557 N.pl3   1  UNL1       -0.2781
     17 H          13.3093   42.9484    4.8579 H       1  UNL1        0.1555
     18 C          14.9092   43.2990    6.1330 C.ar    1  UNL1        0.1643
     19 C          17.0187   43.9028    7.1705 C.ar    1  UNL1        0.0293
     20 C          16.7059   44.6456    6.0401 C.ar    1  UNL1        0.1030
     21 C          18.2452   44.0661    7.9936 C.3     1  UNL1        0.0399
     22 S          15.7952   42.7882    7.4658 S.2     1  UNL1       -0.0557
     23 N          15.5229   44.3014    5.4646 N.ar    1  UNL1       -0.2228
     24 C           5.2737   44.2521    8.6299 C.3     1  UNL1        0.1329
     25 N           4.8261   45.4496    7.9359 N.3     1  UNL1       -0.3148
     26 H           4.9661   45.3332    6.9322 H       1  UNL1        0.1192
     27 H           5.3627   46.2529    8.2631 H       1  UNL1        0.1192
     28 C           4.4312   43.0205    8.2827 C.3     1  UNL1        0.0512
     29 C           4.2894   42.0449    9.4069 C.ar    1  UNL1       -0.0202
     30 C           3.1786   41.1945    9.4763 C.ar    1  UNL1       -0.0019
     31 C           3.0499   40.2955   10.5390 C.ar    1  UNL1        0.0293
     32 C           4.0273   40.2492   11.5376 C.ar    1  UNL1        0.1401
     33 C           5.1293   41.1076   11.4782 C.ar    1  UNL1        0.0293
     34 C           5.2579   42.0075   10.4160 C.ar    1  UNL1       -0.0019
     35 F           3.9037   39.3765   12.5661 F       1  UNL1       -0.2042
@<TRIPOS>BOND
     1    18    22   ar
     2    18    16    1
     3    19    22   ar
     4    20    23   ar
     5    21    19    1
     6     9    15   ar
     7    10    11   ar
     8     1    11    1
     9     1     2    1
    10     2     3    1
    11     3     4    1
    12     4     7    1
    13    24     5    1
    14    24    25    1
    15    24    28    1
    16    28    29    1
    17    30    31   ar
    18    32    33   ar
    19    32    35    1
    20    34    29   ar
    21     6     7    1
    22     6     1    1
    23    12    14   ar
    24    13    12    1
    25    16     9    1
    26     7     5   am
    27    18    23   ar
    28    19    20   ar
    29     9    10   ar
    30    11    14   ar
    31     5     8    2
    32    29    30   ar
    33    31    32   ar
    34    33    34   ar
    35    12    15   ar
    36    16    17    1
    37    25    26    1
    38    25    27    1
@<TRIPOS>MOLECULE
Molport-052-053-752 MCULE-2490986970
 35 38 0 0 0
SMALL
GASTEIGER

@<TRIPOS>ATOM
      1 C          12.6982   39.5504    8.9895 C.3     1  UNL1        0.0603
      2 C          12.1790   40.0897   10.3265 C.3     1  UNL1        0.0094
      3 C          12.9164   39.5133   11.5461 C.3     1  UNL1        0.0219
      4 C          14.0243   38.5323   11.1659 C.3     1  UNL1        0.0935
      5 C          16.2935   39.2051   10.2495 C.2     1  UNL1        0.2400
      6 C          14.2230   39.6569    8.9116 C.3     1  UNL1        0.0993
      7 N          14.8618   39.1076   10.1128 N.am    1  UNL1       -0.2781
      8 O          16.9491   39.8909    9.4199 O.2     1  UNL1       -0.2734
      9 C          12.0612   42.0423    6.2366 C.ar    1  UNL1        0.1361
     10 C          12.6755   41.3907    7.3055 C.ar    1  UNL1        0.0492
     11 C          12.0585   40.2620    7.8445 C.ar    1  UNL1        0.0644
     12 C          10.2940   40.4676    6.2834 C.ar    1  UNL1        0.1406
     13 C           9.0063   39.9718    5.7320 C.3     1  UNL1        0.0737
     14 N          10.8799   39.8221    7.3248 N.ar    1  UNL1       -0.2348
     15 N          10.8832   41.5679    5.7471 N.ar    1  UNL1       -0.2159
     16 N          12.6851   43.2015    5.6738 N.pl3   1  UNL1       -0.2781
     17 H          12.1636   43.7221    5.0210 H       1  UNL1        0.1555
     18 C          14.0034   43.6670    5.9804 C.ar    1  UNL1        0.1643
     19 C          16.2565   44.0205    6.8109 C.ar    1  UNL1        0.0293
     20 C          15.8164   44.9938    5.9239 C.ar    1  UNL1        0.1030
     21 C          17.5904   43.9948    7.4655 C.3     1  UNL1        0.0399
     22 S          15.0471   42.8736    7.0308 S.2     1  UNL1       -0.0557
     23 N          14.5536   44.7887    5.4631 N.ar    1  UNL1       -0.2228
     24 C          17.0704   38.4746   11.3126 C.3     1  UNL1        0.1329
     25 N          16.3575   37.3247   11.8469 N.3     1  UNL1       -0.3148
     26 H          16.2434   36.6246   11.1139 H       1  UNL1        0.1192
     27 H          15.4401   37.6190   12.1818 H       1  UNL1        0.1192
     28 C          18.5072   38.1374   10.9009 C.3     1  UNL1        0.0512
     29 C          18.6707   36.7623   10.3371 C.ar    1  UNL1       -0.0202
     30 C          17.9738   36.3773    9.1847 C.ar    1  UNL1       -0.0019
     31 C          18.1242   35.0847    8.6740 C.ar    1  UNL1        0.0293
     32 C          18.9661   34.1726    9.3175 C.ar    1  UNL1        0.1401
     33 C          19.6511   34.5501   10.4763 C.ar    1  UNL1        0.0293
     34 C          19.5001   35.8424   10.9880 C.ar    1  UNL1       -0.0019
     35 F          19.1136   32.9209    8.8213 F       1  UNL1       -0.2042
@<TRIPOS>BOND
     1    18    22   ar
     2    18    16    1
     3    19    22   ar
     4    20    23   ar
     5    21    19    1
     6     9    15   ar
     7    10    11   ar
     8     1    11    1
     9     1     2    1
    10     2     3    1
    11     3     4    1
    12     4     7    1
    13    24     5    1
    14    24    25    1
    15    24    28    1
    16    28    29    1
    17    30    31   ar
    18    32    33   ar
    19    32    35    1
    20    34    29   ar
    21     6     7    1
    22     6     1    1
    23    12    14   ar
    24    13    12    1
    25    16     9    1
    26     7     5   am
    27    18    23   ar
    28    19    20   ar
    29     9    10   ar
    30    11    14   ar
    31     5     8    2
    32    29    30   ar
    33    31    32   ar
    34    33    34   ar
    35    12    15   ar
    36    16    17    1
    37    25    26    1
    38    25    27    1
@<TRIPOS>MOLECULE
Molport-052-053-752 MCULE-2490986970
 35 38 0 0 0
SMALL
GASTEIGER

@<TRIPOS>ATOM
      1 C          13.2232   39.5749   10.1546 C.3     1  UNL1        0.0603
      2 C          12.4872   38.7267    9.1122 C.3     1  UNL1        0.0094
      3 C          10.9613   38.9118    9.1402 C.3     1  UNL1        0.0219
      4 C          10.5005   39.9164   10.1950 C.3     1  UNL1        0.0935
      5 C          10.6921   42.4369    9.9663 C.2     1  UNL1        0.2400
      6 C          12.7647   41.0339   10.0954 C.3     1  UNL1        0.0993
      7 N          11.3013   41.1379   10.1058 N.am    1  UNL1       -0.2781
      8 O          11.4129   43.4313    9.6839 O.2     1  UNL1       -0.2734
      9 C          16.7917   40.4698    9.3432 C.ar    1  UNL1        0.1361
     10 C          15.4116   40.5823    9.5073 C.ar    1  UNL1        0.0492
     11 C          14.7011   39.4763    9.9732 C.ar    1  UNL1        0.0644
     12 C          16.7043   38.2249   10.0901 C.ar    1  UNL1        0.1406
     13 C          17.4035   36.9514   10.4019 C.3     1  UNL1        0.0737
     14 N          15.3594   38.3189   10.2549 N.ar    1  UNL1       -0.2348
     15 N          17.4103   39.2938    9.6379 N.ar    1  UNL1       -0.2159
     16 N          17.5326   41.5984    8.8666 N.pl3   1  UNL1       -0.2781
     17 H          18.4575   41.6991    9.1885 H       1  UNL1        0.1555
     18 C          17.0416   42.5925    7.9616 C.ar    1  UNL1        0.1643
     19 C          15.7508   44.0040    6.4674 C.ar    1  UNL1        0.0293
     20 C          17.0683   44.4078    6.6369 C.ar    1  UNL1        0.1030
     21 C          14.7466   44.6867    5.6107 C.3     1  UNL1        0.0399
     22 S          15.4652   42.6225    7.3817 S.2     1  UNL1       -0.0557
     23 N          17.7847   43.6121    7.4754 N.ar    1  UNL1       -0.2228
     24 C           9.2257   42.6875   10.1992 C.3     1  UNL1        0.1329
     25 N           8.9684   43.4863   11.3874 N.3     1  UNL1       -0.3148
     26 H           9.3508   44.4228   11.2569 H       1  UNL1        0.1192
     27 H           9.4116   43.0475   12.1945 H       1  UNL1        0.1192
     28 C           8.4889   43.2153    8.9639 C.3     1  UNL1        0.0512
     29 C           7.8591   42.1464    8.1294 C.ar    1  UNL1       -0.0202
     30 C           8.5010   41.6697    6.9793 C.ar    1  UNL1       -0.0019
     31 C           7.8967   40.6794    6.1993 C.ar    1  UNL1        0.0293
     32 C           6.6472   40.1685    6.5634 C.ar    1  UNL1        0.1401
     33 C           5.9981   40.6535    7.7027 C.ar    1  UNL1        0.0293
     34 C           6.6016   41.6446    8.4825 C.ar    1  UNL1       -0.0019
     35 F           6.0628   39.2073    5.8089 F       1  UNL1       -0.2042
@<TRIPOS>BOND
     1    18    22   ar
     2    18    16    1
     3    19    22   ar
     4    20    23   ar
     5    21    19    1
     6     9    15   ar
     7    10    11   ar
     8     1    11    1
     9     1     2    1
    10     2     3    1
    11     3     4    1
    12     4     7    1
    13    24     5    1
    14    24    25    1
    15    24    28    1
    16    28    29    1
    17    30    31   ar
    18    32    33   ar
    19    32    35    1
    20    34    29   ar
    21     6     7    1
    22     6     1    1
    23    12    14   ar
    24    13    12    1
    25    16     9    1
    26     7     5   am
    27    18    23   ar
    28    19    20   ar
    29     9    10   ar
    30    11    14   ar
    31     5     8    2
    32    29    30   ar
    33    31    32   ar
    34    33    34   ar
    35    12    15   ar
    36    16    17    1
    37    25    26    1
    38    25    27    1
@<TRIPOS>MOLECULE
Molport-052-053-752 MCULE-2490986970
 35 38 0 0 0
SMALL
GASTEIGER

@<TRIPOS>ATOM
      1 C          13.6725   39.2788   10.1597 C.3     1  UNL1        0.0603
      2 C          13.1092   38.2347    9.1899 C.3     1  UNL1        0.0094
      3 C          11.5735   38.2313    9.1196 C.3     1  UNL1        0.0219
      4 C          10.9316   39.2826   10.0235 C.3     1  UNL1        0.0935
      5 C          10.8404   41.7659    9.5070 C.2     1  UNL1        0.2400
      6 C          13.0508   40.6539    9.9049 C.3     1  UNL1        0.0993
      7 N          11.5876   40.5762    9.8299 N.am    1  UNL1       -0.2781
      8 O          11.4560   42.8042    9.1449 O.2     1  UNL1       -0.2734
      9 C          17.1565   40.5191    9.4404 C.ar    1  UNL1        0.1361
     10 C          15.7650   40.4775    9.5212 C.ar    1  UNL1        0.0492
     11 C          15.1603   39.3445   10.0651 C.ar    1  UNL1        0.0644
     12 C          17.2843   38.3657   10.4157 C.ar    1  UNL1        0.1406
     13 C          18.1062   37.2246   10.8960 C.3     1  UNL1        0.0737
     14 N          15.9300   38.3101   10.5011 N.ar    1  UNL1       -0.2348
     15 N          17.8881   39.4628    9.8891 N.ar    1  UNL1       -0.2159
     16 N          17.7893   41.6770    8.8850 N.pl3   1  UNL1       -0.2781
     17 H          18.7237   41.8480    9.1438 H       1  UNL1        0.1555
     18 C          17.1777   42.6071    7.9853 C.ar    1  UNL1        0.1643
     19 C          15.7052   43.8825    6.5376 C.ar    1  UNL1        0.0293
     20 C          17.0011   44.3753    6.6096 C.ar    1  UNL1        0.1030
     21 C          14.6062   44.4705    5.7283 C.3     1  UNL1        0.0399
     22 S          15.5695   42.5165    7.5082 S.2     1  UNL1       -0.0557
     23 N          17.8198   43.6556    7.4225 N.ar    1  UNL1       -0.2228
     24 C           9.3428   41.8573    9.6352 C.3     1  UNL1        0.1329
     25 N           8.9171   42.8172   10.6419 N.3     1  UNL1       -0.3148
     26 H           9.1877   43.7569   10.3516 H       1  UNL1        0.1192
     27 H           9.3617   42.5954   11.5327 H       1  UNL1        0.1192
     28 C           8.6223   42.0490    8.2968 C.3     1  UNL1        0.0512
     29 C           7.2481   42.6245    8.4237 C.ar    1  UNL1       -0.0202
     30 C           6.2163   41.8818    9.0117 C.ar    1  UNL1       -0.0019
     31 C           4.9321   42.4249    9.1131 C.ar    1  UNL1        0.0293
     32 C           4.6752   43.7081    8.6213 C.ar    1  UNL1        0.1401
     33 C           5.7001   44.4453    8.0205 C.ar    1  UNL1        0.0293
     34 C           6.9842   43.9021    7.9180 C.ar    1  UNL1       -0.0019
     35 F           3.4314   44.2352    8.7216 F       1  UNL1       -0.2042
@<TRIPOS>BOND
     1    18    22   ar
     2    18    16    1
     3    19    22   ar
     4    20    23   ar
     5    21    19    1
     6     9    15   ar
     7    10    11   ar
     8     1    11    1
     9     1     2    1
    10     2     3    1
    11     3     4    1
    12     4     7    1
    13    24     5    1
    14    24    25    1
    15    24    28    1
    16    28    29    1
    17    30    31   ar
    18    32    33   ar
    19    32    35    1
    20    34    29   ar
    21     6     7    1
    22     6     1    1
    23    12    14   ar
    24    13    12    1
    25    16     9    1
    26     7     5   am
    27    18    23   ar
    28    19    20   ar
    29     9    10   ar
    30    11    14   ar
    31     5     8    2
    32    29    30   ar
    33    31    32   ar
    34    33    34   ar
    35    12    15   ar
    36    16    17    1
    37    25    26    1
    38    25    27    1
@<TRIPOS>MOLECULE
Molport-052-053-752 MCULE-2490986970
 35 38 0 0 0
SMALL
GASTEIGER

@<TRIPOS>ATOM
      1 C          13.8165   39.1591   10.1650 C.3     1  UNL1        0.0603
      2 C          13.3075   38.1388    9.1414 C.3     1  UNL1        0.0094
      3 C          11.7745   38.0353    9.0915 C.3     1  UNL1        0.0219
      4 C          11.0795   38.9850   10.0658 C.3     1  UNL1        0.0935
      5 C          10.8134   41.4827    9.7019 C.2     1  UNL1        0.2400
      6 C          13.0998   40.5016   10.0022 C.3     1  UNL1        0.0993
      7 N          11.6440   40.3294    9.9422 N.am    1  UNL1       -0.2781
      8 O          11.3518   42.5801    9.3951 O.2     1  UNL1       -0.2734
      9 C          17.1964   40.6705    9.4680 C.ar    1  UNL1        0.1361
     10 C          15.8125   40.5297    9.5646 C.ar    1  UNL1        0.0492
     11 C          15.2947   39.3311   10.0548 C.ar    1  UNL1        0.0644
     12 C          17.4855   38.4825   10.3248 C.ar    1  UNL1        0.1406
     13 C          18.3903   37.3766   10.7325 C.3     1  UNL1        0.0737
     14 N          16.1396   38.3302   10.4247 N.ar    1  UNL1       -0.2348
     15 N          18.0050   39.6445    9.8500 N.ar    1  UNL1       -0.2159
     16 N          17.7404   41.8965    8.9674 N.pl3   1  UNL1       -0.2781
     17 H          18.6253   42.1675    9.3031 H       1  UNL1        0.1555
     18 C          17.1058   42.7614    8.0198 C.ar    1  UNL1        0.1643
     19 C          15.6133   43.8980    6.4799 C.ar    1  UNL1        0.0293
     20 C          16.8673   44.4827    6.5948 C.ar    1  UNL1        0.1030
     21 C          14.5128   44.3892    5.6103 C.3     1  UNL1        0.0399
     22 S          15.5304   42.5471    7.4771 S.2     1  UNL1       -0.0557
     23 N          17.6974   43.8403    7.4593 N.ar    1  UNL1       -0.2228
     24 C           9.3155   41.4646    9.8553 C.3     1  UNL1        0.1329
     25 N           8.8469   42.3032   10.9476 N.3     1  UNL1       -0.3148
     26 H           9.0515   43.2803   10.7380 H       1  UNL1        0.1192
     27 H           9.3203   42.0342   11.8101 H       1  UNL1        0.1192
     28 C           8.5609   41.7247    8.5475 C.3     1  UNL1        0.0512
     29 C           9.0092   40.8683    7.4068 C.ar    1  UNL1       -0.0202
     30 C           9.6955   41.4288    6.3220 C.ar    1  UNL1       -0.0019
     31 C          10.0983   40.6208    5.2547 C.ar    1  UNL1        0.0293
     32 C           9.8104   39.2527    5.2665 C.ar    1  UNL1        0.1401
     33 C           9.1125   38.6939    6.3413 C.ar    1  UNL1        0.0293
     34 C           8.7085   39.5018    7.4084 C.ar    1  UNL1       -0.0019
     35 F          10.2027   38.4694    4.2334 F       1  UNL1       -0.2042
@<TRIPOS>BOND
     1    18    22   ar
     2    18    16    1
     3    19    22   ar
     4    20    23   ar
     5    21    19    1
     6     9    15   ar
     7    10    11   ar
     8     1    11    1
     9     1     2    1
    10     2     3    1
    11     3     4    1
    12     4     7    1
    13    24     5    1
    14    24    25    1
    15    24    28    1
    16    28    29    1
    17    30    31   ar
    18    32    33   ar
    19    32    35    1
    20    34    29   ar
    21     6     7    1
    22     6     1    1
    23    12    14   ar
    24    13    12    1
    25    16     9    1
    26     7     5   am
    27    18    23   ar
    28    19    20   ar
    29     9    10   ar
    30    11    14   ar
    31     5     8    2
    32    29    30   ar
    33    31    32   ar
    34    33    34   ar
    35    12    15   ar
    36    16    17    1
    37    25    26    1
    38    25    27    1
@<TRIPOS>MOLECULE
Molport-052-053-752 MCULE-2490986970
 35 38 0 0 0
SMALL
GASTEIGER

@<TRIPOS>ATOM
      1 C          11.6890   39.6941    9.0238 C.3     1  UNL1        0.0603
      2 C          11.1475   39.5935    7.5939 C.3     1  UNL1        0.0094
      3 C           9.7332   40.1743    7.4335 C.3     1  UNL1        0.0219
      4 C           9.1700   40.7441    8.7344 C.3     1  UNL1        0.0935
      5 C           9.8504   42.9696    9.7473 C.2     1  UNL1        0.2400
      6 C          11.5252   41.1135    9.5723 C.3     1  UNL1        0.0993
      7 N          10.1608   41.6135    9.3698 N.am    1  UNL1       -0.2781
      8 O          10.7820   43.7438   10.0951 O.2     1  UNL1       -0.2734
      9 C          15.4495   39.8072    9.2223 C.ar    1  UNL1        0.1361
     10 C          14.1213   40.2285    9.1691 C.ar    1  UNL1        0.0492
     11 C          13.1168   39.2647    9.0833 C.ar    1  UNL1        0.0644
     12 C          14.7453   37.5499    9.1044 C.ar    1  UNL1        0.1406
     13 C          15.0839   36.1036    9.0668 C.3     1  UNL1        0.0737
     14 N          13.4468   37.9446    9.0516 N.ar    1  UNL1       -0.2348
     15 N          15.7348   38.4769    9.1890 N.ar    1  UNL1       -0.2159
     16 N          16.4897   40.7868    9.3116 N.pl3   1  UNL1       -0.2781
     17 H          17.2281   40.6047    9.9368 H       1  UNL1        0.1555
     18 C          16.5465   42.0086    8.5684 C.ar    1  UNL1        0.1643
     19 C          16.1910   43.8974    7.0862 C.ar    1  UNL1        0.0293
     20 C          17.3271   43.9996    7.8776 C.ar    1  UNL1        0.1030
     21 C          15.7401   44.9096    6.0958 C.3     1  UNL1        0.0399
     22 S          15.4022   42.4511    7.4207 S.2     1  UNL1       -0.0557
     23 N          17.5192   42.9378    8.7052 N.ar    1  UNL1       -0.2228
     24 C           8.4447   43.5065    9.8055 C.3     1  UNL1        0.1329
     25 N           8.3844   44.8918   10.2450 N.3     1  UNL1       -0.3148
     26 H           8.8371   45.4883    9.5524 H       1  UNL1        0.1192
     27 H           8.8642   44.9857   11.1402 H       1  UNL1        0.1192
     28 C           7.6391   43.2589    8.5261 C.3     1  UNL1        0.0512
     29 C           6.2298   42.8233    8.7704 C.ar    1  UNL1       -0.0202
     30 C           5.1871   43.7586    8.7831 C.ar    1  UNL1       -0.0019
     31 C           3.8750   43.3417    9.0257 C.ar    1  UNL1        0.0293
     32 C           3.6034   41.9909    9.2624 C.ar    1  UNL1        0.1401
     33 C           4.6446   41.0579    9.2649 C.ar    1  UNL1        0.0293
     34 C           5.9571   41.4745    9.0234 C.ar    1  UNL1       -0.0019
     35 F           2.3317   41.5867    9.4952 F       1  UNL1       -0.2042
@<TRIPOS>BOND
     1    18    22   ar
     2    18    16    1
     3    19    22   ar
     4    20    23   ar
     5    21    19    1
     6     9    15   ar
     7    10    11   ar
     8     1    11    1
     9     1     2    1
    10     2     3    1
    11     3     4    1
    12     4     7    1
    13    24     5    1
    14    24    25    1
    15    24    28    1
    16    28    29    1
    17    30    31   ar
    18    32    33   ar
    19    32    35    1
    20    34    29   ar
    21     6     7    1
    22     6     1    1
    23    12    14   ar
    24    13    12    1
    25    16     9    1
    26     7     5   am
    27    18    23   ar
    28    19    20   ar
    29     9    10   ar
    30    11    14   ar
    31     5     8    2
    32    29    30   ar
    33    31    32   ar
    34    33    34   ar
    35    12    15   ar
    36    16    17    1
    37    25    26    1
    38    25    27    1
@<TRIPOS>MOLECULE
Molport-052-053-752 MCULE-2490986970
 35 38 0 0 0
SMALL
GASTEIGER

@<TRIPOS>ATOM
      1 C          13.4311   41.2912    7.7152 C.3     1  UNL1        0.0603
      2 C          13.0022   42.0424    6.4503 C.3     1  UNL1        0.0094
      3 C          11.4995   41.9237    6.1486 C.3     1  UNL1        0.0219
      4 C          10.7459   41.0914    7.1847 C.3     1  UNL1        0.0935
      5 C          10.1048   41.9084    9.5006 C.2     1  UNL1        0.2400
      6 C          12.5222   41.6433    8.8952 C.3     1  UNL1        0.0993
      7 N          11.1047   41.5286    8.5343 N.am    1  UNL1       -0.2781
      8 O          10.4602   42.4737   10.5694 O.2     1  UNL1       -0.2734
      9 C          16.8351   41.1003    9.3183 C.ar    1  UNL1        0.1361
     10 C          15.5010   40.8196    9.0250 C.ar    1  UNL1        0.0492
     11 C          14.8589   41.5743    8.0435 C.ar    1  UNL1        0.0644
     12 C          16.8366   42.8230    7.6942 C.ar    1  UNL1        0.1406
     13 C          17.5585   43.9065    6.9782 C.3     1  UNL1        0.0737
     14 N          15.5373   42.5616    7.3974 N.ar    1  UNL1       -0.2348
     15 N          17.4760   42.0959    8.6472 N.ar    1  UNL1       -0.2159
     16 N          17.5057   40.3320   10.3230 N.pl3   1  UNL1       -0.2781
     17 H          17.5014   40.6883   11.2408 H       1  UNL1        0.1555
     18 C          18.1819   39.0894   10.1055 C.ar    1  UNL1        0.1643
     19 C          18.9901   36.8008   10.1099 C.ar    1  UNL1        0.0293
     20 C          19.6505   37.6370    9.2198 C.ar    1  UNL1        0.1030
     21 C          19.2841   35.3582   10.3127 C.3     1  UNL1        0.0399
     22 S          17.8049   37.6717   10.9242 S.2     1  UNL1       -0.0557
     23 N          19.1919   38.9172    9.2232 N.ar    1  UNL1       -0.2228
     24 C           8.6387   41.6114    9.3280 C.3     1  UNL1        0.1329
     25 N           8.3905   40.3113    8.7245 N.3     1  UNL1       -0.3148
     26 H           8.7080   39.5767    9.3569 H       1  UNL1        0.1192
     27 H           8.8982   40.2434    7.8424 H       1  UNL1        0.1192
     28 C           7.8122   41.8385   10.5979 C.3     1  UNL1        0.0512
     29 C           6.3361   41.7201   10.3912 C.ar    1  UNL1       -0.0202
     30 C           5.5454   41.0015   11.2969 C.ar    1  UNL1       -0.0019
     31 C           4.1682   40.8862   11.0865 C.ar    1  UNL1        0.0293
     32 C           3.5797   41.4832    9.9676 C.ar    1  UNL1        0.1401
     33 C           4.3694   42.1883    9.0544 C.ar    1  UNL1        0.0293
     34 C           5.7469   42.3029    9.2639 C.ar    1  UNL1       -0.0019
     35 F           2.2449   41.3734    9.7650 F       1  UNL1       -0.2042
@<TRIPOS>BOND
     1    18    22   ar
     2    18    16    1
     3    19    22   ar
     4    20    23   ar
     5    21    19    1
     6     9    15   ar
     7    10    11   ar
     8     1    11    1
     9     1     2    1
    10     2     3    1
    11     3     4    1
    12     4     7    1
    13    24     5    1
    14    24    25    1
    15    24    28    1
    16    28    29    1
    17    30    31   ar
    18    32    33   ar
    19    32    35    1
    20    34    29   ar
    21     6     7    1
    22     6     1    1
    23    12    14   ar
    24    13    12    1
    25    16     9    1
    26     7     5   am
    27    18    23   ar
    28    19    20   ar
    29     9    10   ar
    30    11    14   ar
    31     5     8    2
    32    29    30   ar
    33    31    32   ar
    34    33    34   ar
    35    12    15   ar
    36    16    17    1
    37    25    26    1
    38    25    27    1
@<TRIPOS>MOLECULE
Molport-052-053-752 MCULE-2490986970
 35 38 0 0 0
SMALL
GASTEIGER

@<TRIPOS>ATOM
      1 C          13.7197   39.4484   10.1452 C.3     1  UNL1        0.0603
      2 C          13.2358   38.0029    9.9890 C.3     1  UNL1        0.0094
      3 C          11.7051   37.8738    9.9286 C.3     1  UNL1        0.0219
      4 C          10.9877   39.2194   10.0228 C.3     1  UNL1        0.0935
      5 C          10.8115   40.8951    8.1248 C.2     1  UNL1        0.2400
      6 C          13.0506   40.3635    9.1169 C.3     1  UNL1        0.0993
      7 N          11.5956   40.1761    9.0974 N.am    1  UNL1       -0.2781
      8 O          11.3959   41.5446    7.2165 O.2     1  UNL1       -0.2734
      9 C          17.1869   40.7265    9.4110 C.ar    1  UNL1        0.1361
     10 C          15.7967   40.6733    9.5059 C.ar    1  UNL1        0.0492
     11 C          15.2059   39.5266   10.0360 C.ar    1  UNL1        0.0644
     12 C          17.3404   38.5571   10.3467 C.ar    1  UNL1        0.1406
     13 C          18.1754   37.4138   10.7980 C.3     1  UNL1        0.0737
     14 N          15.9875   38.4902   10.4455 N.ar    1  UNL1       -0.2348
     15 N          17.9307   39.6678    9.8333 N.ar    1  UNL1       -0.2159
     16 N          17.8055   41.8985    8.8696 N.pl3   1  UNL1       -0.2781
     17 H          18.7155   42.1118    9.1788 H       1  UNL1        0.1555
     18 C          17.2122   42.7863    7.9165 C.ar    1  UNL1        0.1643
     19 C          15.7717   43.9880    6.3764 C.ar    1  UNL1        0.0293
     20 C          17.0592   44.4992    6.4697 C.ar    1  UNL1        0.1030
     21 C          14.6922   44.5314    5.5116 C.3     1  UNL1        0.0399
     22 S          15.6209   42.6580    7.3936 S.2     1  UNL1       -0.0557
     23 N          17.8599   43.8207    7.3344 N.ar    1  UNL1       -0.2228
     24 C           9.3077   40.9623    8.1670 C.3     1  UNL1        0.1329
     25 N           8.6817   39.6495    8.1937 N.3     1  UNL1       -0.3148
     26 H           8.9220   39.1759    9.0645 H       1  UNL1        0.1192
     27 H           9.0152   39.0977    7.4033 H       1  UNL1        0.1192
     28 C           8.7648   41.8958    9.2538 C.3     1  UNL1        0.0512
     29 C           7.3409   41.6319    9.6255 C.ar    1  UNL1       -0.0202
     30 C           6.9729   41.4711   10.9675 C.ar    1  UNL1       -0.0019
     31 C           5.6407   41.2115   11.3023 C.ar    1  UNL1        0.0293
     32 C           4.6752   41.1056   10.2968 C.ar    1  UNL1        0.1401
     33 C           5.0429   41.2509    8.9557 C.ar    1  UNL1        0.0293
     34 C           6.3753   41.5095    8.6203 C.ar    1  UNL1       -0.0019
     35 F           3.3840   40.8563   10.6215 F       1  UNL1       -0.2042
@<TRIPOS>BOND
     1    18    22   ar
     2    18    16    1
     3    19    22   ar
     4    20    23   ar
     5    21    19    1
     6     9    15   ar
     7    10    11   ar
     8     1    11    1
     9     1     2    1
    10     2     3    1
    11     3     4    1
    12     4     7    1
    13    24     5    1
    14    24    25    1
    15    24    28    1
    16    28    29    1
    17    30    31   ar
    18    32    33   ar
    19    32    35    1
    20    34    29   ar
    21     6     7    1
    22     6     1    1
    23    12    14   ar
    24    13    12    1
    25    16     9    1
    26     7     5   am
    27    18    23   ar
    28    19    20   ar
    29     9    10   ar
    30    11    14   ar
    31     5     8    2
    32    29    30   ar
    33    31    32   ar
    34    33    34   ar
    35    12    15   ar
    36    16    17    1
    37    25    26    1
    38    25    27    1
@<TRIPOS>MOLECULE
Molport-052-053-752 MCULE-2490986970
 35 38 0 0 0
SMALL
GASTEIGER

@<TRIPOS>ATOM
      1 C          12.8569   41.0760    8.0256 C.3     1  UNL1        0.0603
      2 C          12.2121   40.8642    6.6518 C.3     1  UNL1        0.0094
      3 C          10.7483   40.4007    6.7284 C.3     1  UNL1        0.0219
      4 C          10.2395   40.2626    8.1623 C.3     1  UNL1        0.0935
      5 C           9.5864   42.2094    9.6541 C.2     1  UNL1        0.2400
      6 C          11.9677   41.9435    8.9195 C.3     1  UNL1        0.0993
      7 N          10.5830   41.4586    8.9322 N.am    1  UNL1       -0.2781
      8 O           9.8843   43.3393   10.1260 O.2     1  UNL1       -0.2734
      9 C          16.5311   41.7517    8.5128 C.ar    1  UNL1        0.1361
     10 C          15.2688   41.1765    8.6546 C.ar    1  UNL1        0.0492
     11 C          14.2161   41.6763    7.8883 C.ar    1  UNL1        0.0644
     12 C          15.6717   43.2562    6.8994 C.ar    1  UNL1        0.1406
     13 C          15.8903   44.3814    5.9538 C.3     1  UNL1        0.0737
     14 N          14.4363   42.7065    7.0264 N.ar    1  UNL1       -0.2348
     15 N          16.7073   42.7797    7.6384 N.ar    1  UNL1       -0.2159
     16 N          17.6202   41.2469    9.2930 N.pl3   1  UNL1       -0.2781
     17 H          18.3988   41.8368    9.4152 H       1  UNL1        0.1555
     18 C          17.6721   39.9566    9.9103 C.ar    1  UNL1        0.1643
     19 C          18.2613   37.7640   10.7684 C.ar    1  UNL1        0.0293
     20 C          16.9658   38.1639   11.0669 C.ar    1  UNL1        0.1030
     21 C          18.8762   36.4725   11.1715 C.3     1  UNL1        0.0399
     22 S          19.0292   38.9669    9.8797 S.2     1  UNL1       -0.0557
     23 N          16.6433   39.3931   10.5830 N.ar    1  UNL1       -0.2228
     24 C           8.2019   41.6858    9.9305 C.3     1  UNL1        0.1329
     25 N           7.5144   42.4253   10.9777 N.3     1  UNL1       -0.3148
     26 H           7.3477   43.3818   10.6652 H       1  UNL1        0.1192
     27 H           8.0906   42.4381   11.8193 H       1  UNL1        0.1192
     28 C           7.3465   41.5160    8.6709 C.3     1  UNL1        0.0512
     29 C           6.2268   42.5007    8.5597 C.ar    1  UNL1       -0.0202
     30 C           4.9682   42.2126    9.1028 C.ar    1  UNL1       -0.0019
     31 C           3.9249   43.1352    8.9813 C.ar    1  UNL1        0.0293
     32 C           4.1355   44.3441    8.3114 C.ar    1  UNL1        0.1401
     33 C           5.3867   44.6272    7.7556 C.ar    1  UNL1        0.0293
     34 C           6.4301   43.7044    7.8760 C.ar    1  UNL1       -0.0019
     35 F           3.1252   45.2389    8.1958 F       1  UNL1       -0.2042
@<TRIPOS>BOND
     1    18    22   ar
     2    18    16    1
     3    19    22   ar
     4    20    23   ar
     5    21    19    1
     6     9    15   ar
     7    10    11   ar
     8     1    11    1
     9     1     2    1
    10     2     3    1
    11     3     4    1
    12     4     7    1
    13    24     5    1
    14    24    25    1
    15    24    28    1
    16    28    29    1
    17    30    31   ar
    18    32    33   ar
    19    32    35    1
    20    34    29   ar
    21     6     7    1
    22     6     1    1
    23    12    14   ar
    24    13    12    1
    25    16     9    1
    26     7     5   am
    27    18    23   ar
    28    19    20   ar
    29     9    10   ar
    30    11    14   ar
    31     5     8    2
    32    29    30   ar
    33    31    32   ar
    34    33    34   ar
    35    12    15   ar
    36    16    17    1
    37    25    26    1
    38    25    27    1
@<TRIPOS>MOLECULE
Molport-052-053-752 MCULE-2490986970
 35 38 0 0 0
SMALL
GASTEIGER

@<TRIPOS>ATOM
      1 C          13.6408   38.9830    9.6708 C.3     1  UNL1        0.0603
      2 C          13.3331   37.4826    9.7173 C.3     1  UNL1        0.0094
      3 C          11.8557   37.1529    9.4496 C.3     1  UNL1        0.0219
      4 C          11.0062   38.3935    9.1784 C.3     1  UNL1        0.0935
      5 C          10.9996   39.6871    6.9948 C.2     1  UNL1        0.2400
      6 C          13.0743   39.6185    8.3989 C.3     1  UNL1        0.0993
      7 N          11.6696   39.2483    8.1933 N.am    1  UNL1       -0.2781
      8 O          11.6667   40.2416    6.0806 O.2     1  UNL1       -0.2734
      9 C          17.0021   40.6768    9.5066 C.ar    1  UNL1        0.1361
     10 C          15.6274   40.4675    9.4013 C.ar    1  UNL1        0.0492
     11 C          15.1089   39.2284    9.7769 C.ar    1  UNL1        0.0644
     12 C          17.2811   38.4747   10.3299 C.ar    1  UNL1        0.1406
     13 C          18.1759   37.3983   10.8287 C.3     1  UNL1        0.0737
     14 N          15.9443   38.2555   10.2329 N.ar    1  UNL1       -0.2348
     15 N          17.8011   39.6766    9.9687 N.ar    1  UNL1       -0.2159
     16 N          17.5465   41.9448    9.1253 N.pl3   1  UNL1       -0.2781
     17 H          18.3067   42.2853    9.6501 H       1  UNL1        0.1555
     18 C          17.0786   42.7590    8.0451 C.ar    1  UNL1        0.1643
     19 C          15.8325   43.8608    6.2777 C.ar    1  UNL1        0.0293
     20 C          17.1291   44.3302    6.4392 C.ar    1  UNL1        0.1030
     21 C          14.8574   44.3591    5.2729 C.3     1  UNL1        0.0399
     22 S          15.5341   42.6407    7.3950 S.2     1  UNL1       -0.0557
     23 N          17.8206   43.7081    7.4312 N.ar    1  UNL1       -0.2228
     24 C           9.5119   39.5702    6.7937 C.3     1  UNL1        0.1329
     25 N           9.1242   38.3334    6.1334 N.3     1  UNL1       -0.3148
     26 H           9.3443   37.5418    6.7378 H       1  UNL1        0.1192
     27 H           9.6344   38.2426    5.2549 H       1  UNL1        0.1192
     28 C           8.6974   39.8405    8.0629 C.3     1  UNL1        0.0512
     29 C           8.4681   41.2918    8.3399 C.ar    1  UNL1       -0.0202
     30 C           7.5285   42.0189    7.5979 C.ar    1  UNL1       -0.0019
     31 C           7.3319   43.3785    7.8567 C.ar    1  UNL1        0.0293
     32 C           8.0783   44.0155    8.8527 C.ar    1  UNL1        0.1401
     33 C           9.0271   43.2951    9.5844 C.ar    1  UNL1        0.0293
     34 C           9.2248   41.9355    9.3252 C.ar    1  UNL1       -0.0019
     35 F           7.8861   45.3323    9.1049 F       1  UNL1       -0.2042
@<TRIPOS>BOND
     1    18    22   ar
     2    18    16    1
     3    19    22   ar
     4    20    23   ar
     5    21    19    1
     6     9    15   ar
     7    10    11   ar
     8     1    11    1
     9     1     2    1
    10     2     3    1
    11     3     4    1
    12     4     7    1
    13    24     5    1
    14    24    25    1
    15    24    28    1
    16    28    29    1
    17    30    31   ar
    18    32    33   ar
    19    32    35    1
    20    34    29   ar
    21     6     7    1
    22     6     1    1
    23    12    14   ar
    24    13    12    1
    25    16     9    1
    26     7     5   am
    27    18    23   ar
    28    19    20   ar
    29     9    10   ar
    30    11    14   ar
    31     5     8    2
    32    29    30   ar
    33    31    32   ar
    34    33    34   ar
    35    12    15   ar
    36    16    17    1
    37    25    26    1
    38    25    27    1
