@<TRIPOS>MOLECULE
Molport-051-982-927 MCULE-8994215766
 24 26 0 0 0
SMALL
GASTEIGER

@<TRIPOS>ATOM
      1 C          15.0770   42.9632    7.0890 C.ar    1  UNL1        0.1434
      2 C          16.7209   41.9807    8.4034 C.ar    1  UNL1        0.1305
      3 C          16.5090   40.0997    9.7963 C.ar    1  UNL1        0.0556
      4 C          15.1286   39.9987    9.4413 C.ar    1  UNL1       -0.0081
      5 C          14.2478   38.9071    9.9893 C.3     1  UNL1        0.0323
      6 C          14.5836   40.9256    8.5246 C.ar    1  UNL1        0.0018
      7 C          15.4045   41.9307    8.0061 C.ar    1  UNL1        0.0572
      8 N          16.1081   43.8021    6.7748 N.ar    1  UNL1       -0.1927
      9 N          17.2723   41.1033    9.2711 N.ar    1  UNL1       -0.2419
     10 S          17.4332   43.2653    7.6352 S.2     1  UNL1        0.0338
     11 C          17.1606   39.1631   10.7805 C.3     1  UNL1        0.0455
     12 C          18.6385   38.9763   10.4525 C.3     1  UNL1        0.0067
     13 N          13.7644   43.1277    6.5234 N.pl3   1  UNL1       -0.2762
     14 H          13.6512   43.7852    5.7994 H       1  UNL1        0.1556
     15 C          10.7270   40.9406    7.2522 C.ar    1  UNL1        0.1149
     16 C          12.6114   42.3909    6.9517 C.ar    1  UNL1        0.1868
     17 N          10.9472   41.7554    8.3083 N.ar    1  UNL1       -0.1439
     18 N          11.9906   42.5655    8.1397 N.ar    1  UNL1       -0.1256
     19 S          11.8713   41.1857    6.0380 S.2     1  UNL1       -0.0346
     20 C           9.6555   39.8963    7.2225 C.3     1  UNL1        0.0865
     21 C           8.8913   39.9305    5.9002 C.3     1  UNL1        0.1491
     22 O           8.9767   38.6685    5.2711 O.3     1  UNL1       -0.3533
     23 C          10.8042   38.5547    3.7362 C.3     1  UNL1        0.0346
     24 C           9.3211   38.8410    3.9136 C.3     1  UNL1        0.1423
@<TRIPOS>BOND
     1    23    24    1
     2    24    22    1
     3    21    22    1
     4    21    20    1
     5    20    15    1
     6    15    19   ar
     7    16    13    1
     8    16    19   ar
     9     2    10   ar
    10     3     9   ar
    11    11     3    1
    12    11    12    1
    13     4     6   ar
    14     5     4    1
    15     7     1   ar
    16     7     2   ar
    17    17    18   ar
    18    13     1    1
    19     8    10   ar
    20    15    17   ar
    21    16    18   ar
    22     1     8   ar
    23     2     9   ar
    24     3     4   ar
    25     6     7   ar
    26    13    14    1
@<TRIPOS>MOLECULE
Molport-051-982-927 MCULE-8994215766
 24 26 0 0 0
SMALL
GASTEIGER

@<TRIPOS>ATOM
      1 C          14.8213   42.7412    7.0177 C.ar    1  UNL1        0.1434
      2 C          16.6039   42.0068    8.3134 C.ar    1  UNL1        0.1305
      3 C          16.6278   40.2174    9.8368 C.ar    1  UNL1        0.0556
      4 C          15.2491   39.9671    9.5566 C.ar    1  UNL1       -0.0081
      5 C          14.4983   38.8417   10.2179 C.3     1  UNL1        0.0323
      6 C          14.5817   40.7738    8.6077 C.ar    1  UNL1        0.0018
      7 C          15.2824   41.8099    7.9845 C.ar    1  UNL1        0.0572
      8 N          15.7552   43.6457    6.5990 N.ar    1  UNL1       -0.1927
      9 N          17.2710   41.2464    9.2098 N.ar    1  UNL1       -0.2419
     10 S          17.1598   43.2931    7.4279 S.2     1  UNL1        0.0338
     11 C          17.4050   39.4155   10.8483 C.3     1  UNL1        0.0455
     12 C          18.7181   38.9191   10.2517 C.3     1  UNL1        0.0067
     13 N          13.4765   42.7459    6.5066 N.pl3   1  UNL1       -0.2762
     14 H          13.2827   43.3027    5.7182 H       1  UNL1        0.1556
     15 C          10.6165   41.0473    8.3709 C.ar    1  UNL1        0.1149
     16 C          12.4019   41.9876    7.0775 C.ar    1  UNL1        0.1868
     17 N          10.8809   40.3524    7.2418 N.ar    1  UNL1       -0.1439
     18 N          11.8766   40.8711    6.5254 N.ar    1  UNL1       -0.1256
     19 S          11.6259   42.3902    8.5166 S.2     1  UNL1       -0.0346
     20 C           9.5038   40.7048    9.3113 C.3     1  UNL1        0.0865
     21 C           8.5756   41.8996    9.5226 C.3     1  UNL1        0.1491
     22 O           8.7321   42.3943   10.8366 O.3     1  UNL1       -0.3533
     23 C           8.7121   41.1531   12.8780 C.3     1  UNL1        0.0346
     24 C           7.8883   41.6794   11.7129 C.3     1  UNL1        0.1423
@<TRIPOS>BOND
     1    23    24    1
     2    24    22    1
     3    21    22    1
     4    21    20    1
     5    20    15    1
     6    15    19   ar
     7    16    13    1
     8    16    19   ar
     9     2    10   ar
    10     3     9   ar
    11    11     3    1
    12    11    12    1
    13     4     6   ar
    14     5     4    1
    15     7     1   ar
    16     7     2   ar
    17    17    18   ar
    18    13     1    1
    19     8    10   ar
    20    15    17   ar
    21    16    18   ar
    22     1     8   ar
    23     2     9   ar
    24     3     4   ar
    25     6     7   ar
    26    13    14    1
@<TRIPOS>MOLECULE
Molport-051-982-927 MCULE-8994215766
 24 26 0 0 0
SMALL
GASTEIGER

@<TRIPOS>ATOM
      1 C          14.1808   42.1083    7.2028 C.ar    1  UNL1        0.1434
      2 C          16.1106   41.6679    8.4182 C.ar    1  UNL1        0.1305
      3 C          16.4727   39.9240    9.9516 C.ar    1  UNL1        0.0556
      4 C          15.1360   39.4660    9.7385 C.ar    1  UNL1       -0.0081
      5 C          14.5939   38.2503   10.4426 C.3     1  UNL1        0.0323
      6 C          14.3124   40.1500    8.8164 C.ar    1  UNL1        0.0018
      7 C          14.8201   41.2705    8.1534 C.ar    1  UNL1        0.0572
      8 N          14.9480   43.1365    6.7340 N.ar    1  UNL1       -0.1927
      9 N          16.9247   41.0288    9.2876 N.ar    1  UNL1       -0.2419
     10 S          16.4259   43.0102    7.4983 S.2     1  UNL1        0.0338
     11 C          17.4070   39.2621   10.9311 C.3     1  UNL1        0.0455
     12 C          18.7738   39.0228   10.2979 C.3     1  UNL1        0.0067
     13 N          12.8287   41.9042    6.7557 N.pl3   1  UNL1       -0.2762
     14 H          12.6814   41.7008    5.8037 H       1  UNL1        0.1556
     15 C           9.5528   41.8626    8.7070 C.ar    1  UNL1        0.1149
     16 C          11.6829   41.9792    7.6144 C.ar    1  UNL1        0.1868
     17 N          10.4915   42.5077    9.4352 N.ar    1  UNL1       -0.1439
     18 N          11.6739   42.5779    8.8263 N.ar    1  UNL1       -0.1256
     19 S          10.1812   41.3155    7.2409 S.2     1  UNL1       -0.0346
     20 C           8.1640   41.5969    9.1972 C.3     1  UNL1        0.0865
     21 C           7.3351   42.8798    9.2216 C.3     1  UNL1        0.1491
     22 O           6.2505   42.7601    8.3243 O.3     1  UNL1       -0.3533
     23 C           4.8504   44.6021    7.7286 C.3     1  UNL1        0.0346
     24 C           5.1735   43.5505    8.7786 C.3     1  UNL1        0.1423
@<TRIPOS>BOND
     1    23    24    1
     2    24    22    1
     3    21    22    1
     4    21    20    1
     5    20    15    1
     6    15    19   ar
     7    16    13    1
     8    16    19   ar
     9     2    10   ar
    10     3     9   ar
    11    11     3    1
    12    11    12    1
    13     4     6   ar
    14     5     4    1
    15     7     1   ar
    16     7     2   ar
    17    17    18   ar
    18    13     1    1
    19     8    10   ar
    20    15    17   ar
    21    16    18   ar
    22     1     8   ar
    23     2     9   ar
    24     3     4   ar
    25     6     7   ar
    26    13    14    1
@<TRIPOS>MOLECULE
Molport-051-982-927 MCULE-8994215766
 24 26 0 0 0
SMALL
GASTEIGER

@<TRIPOS>ATOM
      1 C          14.3915   42.7048    7.2844 C.ar    1  UNL1        0.1434
      2 C          16.1732   41.6898    8.3756 C.ar    1  UNL1        0.1305
      3 C          16.0846   39.9562    9.9600 C.ar    1  UNL1        0.0556
      4 C          14.6587   39.9510    9.8670 C.ar    1  UNL1       -0.0081
      5 C          13.8166   38.9917   10.6659 C.3     1  UNL1        0.0323
      6 C          14.0234   40.8447    8.9758 C.ar    1  UNL1        0.0018
      7 C          14.8060   41.7258    8.2249 C.ar    1  UNL1        0.0572
      8 N          15.4056   43.4189    6.7125 N.ar    1  UNL1       -0.1927
      9 N          16.8095   40.8406    9.2129 N.ar    1  UNL1       -0.2419
     10 S          16.8238   42.8376    7.3722 S.2     1  UNL1        0.0338
     11 C          16.8362   39.0489   10.8994 C.3     1  UNL1        0.0455
     12 C          18.3279   39.0567   10.5811 C.3     1  UNL1        0.0067
     13 N          13.0128   42.9396    6.9473 N.pl3   1  UNL1       -0.2762
     14 H          12.7223   43.8697    6.8068 H       1  UNL1        0.1556
     15 C          10.1927   40.3729    6.9271 C.ar    1  UNL1        0.1149
     16 C          12.0366   41.8993    6.8038 C.ar    1  UNL1        0.1868
     17 N          11.0607   40.0820    5.9323 N.ar    1  UNL1       -0.1439
     18 N          12.0885   40.9263    5.8668 N.ar    1  UNL1       -0.1256
     19 S          10.6707   41.7489    7.7769 S.2     1  UNL1       -0.0346
     20 C           8.9262   39.6131    7.1682 C.3     1  UNL1        0.0865
     21 C           8.1262   39.4546    5.8765 C.3     1  UNL1        0.1491
     22 O           7.7030   40.7238    5.4227 O.3     1  UNL1       -0.3533
     23 C           7.0055   42.8311    6.3064 C.3     1  UNL1        0.0346
     24 C           6.8715   41.3188    6.3952 C.3     1  UNL1        0.1423
@<TRIPOS>BOND
     1    23    24    1
     2    24    22    1
     3    21    22    1
     4    21    20    1
     5    20    15    1
     6    15    19   ar
     7    16    13    1
     8    16    19   ar
     9     2    10   ar
    10     3     9   ar
    11    11     3    1
    12    11    12    1
    13     4     6   ar
    14     5     4    1
    15     7     1   ar
    16     7     2   ar
    17    17    18   ar
    18    13     1    1
    19     8    10   ar
    20    15    17   ar
    21    16    18   ar
    22     1     8   ar
    23     2     9   ar
    24     3     4   ar
    25     6     7   ar
    26    13    14    1
@<TRIPOS>MOLECULE
Molport-051-982-927 MCULE-8994215766
 24 26 0 0 0
SMALL
GASTEIGER

@<TRIPOS>ATOM
      1 C          12.4766   41.1123    7.1581 C.ar    1  UNL1        0.1434
      2 C          14.3976   42.4115    7.0252 C.ar    1  UNL1        0.1305
      3 C          16.3910   42.1521    8.2428 C.ar    1  UNL1        0.0556
      4 C          15.8209   41.0357    8.9286 C.ar    1  UNL1       -0.0081
      5 C          16.5955   40.2616    9.9622 C.3     1  UNL1        0.0323
      6 C          14.5086   40.6247    8.6036 C.ar    1  UNL1        0.0018
      7 C          13.7947   41.3353    7.6350 C.ar    1  UNL1        0.0572
      8 N          12.0552   41.9900    6.2002 N.ar    1  UNL1       -0.1927
      9 N          15.6536   42.8225    7.3086 N.ar    1  UNL1       -0.2419
     10 S          13.3186   43.0485    5.9401 S.2     1  UNL1        0.0338
     11 C          17.7755   42.6645    8.5446 C.3     1  UNL1        0.0455
     12 C          18.0887   43.9015    7.7090 C.3     1  UNL1        0.0067
     13 N          11.6354   40.0476    7.6359 N.pl3   1  UNL1       -0.2762
     14 H          12.0504   39.3358    8.1748 H       1  UNL1        0.1556
     15 C           7.8410   40.1480    7.2703 C.ar    1  UNL1        0.1149
     16 C          10.2284   39.9616    7.3738 C.ar    1  UNL1        0.1868
     17 N           8.3453   39.2552    6.3893 N.ar    1  UNL1       -0.1439
     18 N           9.6713   39.1469    6.4502 N.ar    1  UNL1       -0.1256
     19 S           9.0640   40.8792    8.1723 S.2     1  UNL1       -0.0346
     20 C           6.3882   40.4968    7.3544 C.3     1  UNL1        0.0865
     21 C           6.0789   41.2557    8.6436 C.3     1  UNL1        0.1491
     22 O           4.7523   40.9844    9.0462 O.3     1  UNL1       -0.3533
     23 C           4.0748   40.2793   11.2262 C.3     1  UNL1        0.0346
     24 C           4.5590   41.4380   10.3684 C.3     1  UNL1        0.1423
@<TRIPOS>BOND
     1    23    24    1
     2    24    22    1
     3    21    22    1
     4    21    20    1
     5    20    15    1
     6    15    19   ar
     7    16    13    1
     8    16    19   ar
     9     2    10   ar
    10     3     9   ar
    11    11     3    1
    12    11    12    1
    13     4     6   ar
    14     5     4    1
    15     7     1   ar
    16     7     2   ar
    17    17    18   ar
    18    13     1    1
    19     8    10   ar
    20    15    17   ar
    21    16    18   ar
    22     1     8   ar
    23     2     9   ar
    24     3     4   ar
    25     6     7   ar
    26    13    14    1
@<TRIPOS>MOLECULE
Molport-051-982-927 MCULE-8994215766
 24 26 0 0 0
SMALL
GASTEIGER

@<TRIPOS>ATOM
      1 C          12.3953   41.1521    6.8448 C.ar    1  UNL1        0.1434
      2 C          14.3717   41.2678    8.0598 C.ar    1  UNL1        0.1305
      3 C          16.0430   42.9146    7.9256 C.ar    1  UNL1        0.0556
      4 C          15.2976   43.5807    6.9045 C.ar    1  UNL1       -0.0081
      5 C          15.7847   44.8587    6.2743 C.3     1  UNL1        0.0323
      6 C          14.0536   43.0462    6.5002 C.ar    1  UNL1        0.0018
      7 C          13.5956   41.8673    7.0945 C.ar    1  UNL1        0.0572
      8 N          12.2333   40.0210    7.5931 N.ar    1  UNL1       -0.1927
      9 N          15.5607   41.7600    8.4732 N.ar    1  UNL1       -0.2419
     10 S          13.5810   39.9032    8.5698 S.2     1  UNL1        0.0338
     11 C          17.3855   43.4091    8.3985 C.3     1  UNL1        0.0455
     12 C          18.4072   43.3661    7.2668 C.3     1  UNL1        0.0067
     13 N          11.4135   41.5727    5.8811 N.pl3   1  UNL1       -0.2762
     14 H          11.7103   42.1451    5.1372 H       1  UNL1        0.1556
     15 C           7.7134   40.8404    6.4417 C.ar    1  UNL1        0.1149
     16 C          10.0282   41.2075    5.9398 C.ar    1  UNL1        0.1868
     17 N           8.1034   40.2743    5.2776 N.ar    1  UNL1       -0.1439
     18 N           9.3908   40.4730    5.0008 N.ar    1  UNL1       -0.1256
     19 S           8.9880   41.6567    7.1853 S.2     1  UNL1       -0.0346
     20 C           6.3036   40.8137    6.9429 C.3     1  UNL1        0.0865
     21 C           6.2451   41.1318    8.4359 C.3     1  UNL1        0.1491
     22 O           5.0183   41.7638    8.7378 O.3     1  UNL1       -0.3533
     23 C           2.9146   41.2127    9.7274 C.3     1  UNL1        0.0346
     24 C           4.4281   41.1376    9.8562 C.3     1  UNL1        0.1423
@<TRIPOS>BOND
     1    23    24    1
     2    24    22    1
     3    21    22    1
     4    21    20    1
     5    20    15    1
     6    15    19   ar
     7    16    13    1
     8    16    19   ar
     9     2    10   ar
    10     3     9   ar
    11    11     3    1
    12    11    12    1
    13     4     6   ar
    14     5     4    1
    15     7     1   ar
    16     7     2   ar
    17    17    18   ar
    18    13     1    1
    19     8    10   ar
    20    15    17   ar
    21    16    18   ar
    22     1     8   ar
    23     2     9   ar
    24     3     4   ar
    25     6     7   ar
    26    13    14    1
@<TRIPOS>MOLECULE
Molport-051-982-927 MCULE-8994215766
 24 26 0 0 0
SMALL
GASTEIGER

@<TRIPOS>ATOM
      1 C          12.3655   40.2962    7.2079 C.ar    1  UNL1        0.1434
      2 C          14.3139   41.2120    8.0800 C.ar    1  UNL1        0.1305
      3 C          15.4471   43.1360    7.3469 C.ar    1  UNL1        0.0556
      4 C          14.4742   43.3095    6.3147 C.ar    1  UNL1       -0.0081
      5 C          14.5400   44.4643    5.3505 C.3     1  UNL1        0.0323
      6 C          13.4022   42.3941    6.2178 C.ar    1  UNL1        0.0018
      7 C          13.3343   41.3298    7.1209 C.ar    1  UNL1        0.0572
      8 N          12.5787   39.3904    8.2077 N.ar    1  UNL1       -0.1927
      9 N          15.3457   42.0764    8.2028 N.ar    1  UNL1       -0.2419
     10 S          13.9728   39.8691    8.9898 S.2     1  UNL1        0.0338
     11 C          16.6295   44.0564    7.5054 C.3     1  UNL1        0.0455
     12 C          17.7908   43.6013    6.6275 C.3     1  UNL1        0.0067
     13 N          11.2386   40.1956    6.3192 N.pl3   1  UNL1       -0.2762
     14 H          11.3308   39.6336    5.5161 H       1  UNL1        0.1556
     15 C           7.9027   41.7576    7.3057 C.ar    1  UNL1        0.1149
     16 C           9.9891   40.8652    6.5338 C.ar    1  UNL1        0.1868
     17 N           8.2631   42.2203    6.0876 N.ar    1  UNL1       -0.1439
     18 N           9.4195   41.7205    5.6556 N.ar    1  UNL1       -0.1256
     19 S           9.0553   40.6934    7.9244 S.2     1  UNL1       -0.0346
     20 C           6.6789   42.2152    8.0354 C.3     1  UNL1        0.0865
     21 C           7.0331   43.2340    9.1172 C.3     1  UNL1        0.1491
     22 O           8.2615   43.8549    8.7992 O.3     1  UNL1       -0.3533
     23 C          10.2024   43.5771   10.1645 C.3     1  UNL1        0.0346
     24 C           8.8811   44.3079    9.9833 C.3     1  UNL1        0.1423
@<TRIPOS>BOND
     1    23    24    1
     2    24    22    1
     3    21    22    1
     4    21    20    1
     5    20    15    1
     6    15    19   ar
     7    16    13    1
     8    16    19   ar
     9     2    10   ar
    10     3     9   ar
    11    11     3    1
    12    11    12    1
    13     4     6   ar
    14     5     4    1
    15     7     1   ar
    16     7     2   ar
    17    17    18   ar
    18    13     1    1
    19     8    10   ar
    20    15    17   ar
    21    16    18   ar
    22     1     8   ar
    23     2     9   ar
    24     3     4   ar
    25     6     7   ar
    26    13    14    1
@<TRIPOS>MOLECULE
Molport-051-982-927 MCULE-8994215766
 24 26 0 0 0
SMALL
GASTEIGER

@<TRIPOS>ATOM
      1 C          13.0883   39.7901    8.4213 C.ar    1  UNL1        0.1434
      2 C          15.0950   40.9532    8.5468 C.ar    1  UNL1        0.1305
      3 C          15.7107   42.8831    7.3551 C.ar    1  UNL1        0.0556
      4 C          14.4478   42.8670    6.6867 C.ar    1  UNL1       -0.0081
      5 C          14.0728   43.9196    5.6772 C.3     1  UNL1        0.0323
      6 C          13.5119   41.8580    7.0068 C.ar    1  UNL1        0.0018
      7 C          13.8553   40.8889    7.9533 C.ar    1  UNL1        0.0572
      8 N          13.7090   39.0120    9.3565 N.ar    1  UNL1       -0.1927
      9 N          16.0071   41.9109    8.2677 N.ar    1  UNL1       -0.2419
     10 S          15.2150   39.6852    9.6076 S.2     1  UNL1        0.0338
     11 C          16.7695   43.9128    7.0568 C.3     1  UNL1        0.0455
     12 C          17.8959   43.8434    8.0830 C.3     1  UNL1        0.0067
     13 N          11.7571   39.5037    7.9570 N.pl3   1  UNL1       -0.2762
     14 H          11.6460   38.8073    7.2701 H       1  UNL1        0.1556
     15 C           8.8995   41.4323    9.5868 C.ar    1  UNL1        0.1149
     16 C          10.5825   40.1724    8.4356 C.ar    1  UNL1        0.1868
     17 N           8.4500   40.8555    8.4497 N.ar    1  UNL1       -0.1439
     18 N           9.3831   40.1506    7.8125 N.ar    1  UNL1       -0.1256
     19 S          10.5328   41.0982    9.8411 S.2     1  UNL1       -0.0346
     20 C           8.0630   42.3263   10.4474 C.3     1  UNL1        0.0865
     21 C           7.2038   41.5123   11.4132 C.3     1  UNL1        0.1491
     22 O           7.6152   41.7646   12.7409 O.3     1  UNL1       -0.3533
     23 C           9.1266   41.0746   14.4579 C.3     1  UNL1        0.0346
     24 C           8.8812   41.1815   12.9608 C.3     1  UNL1        0.1423
@<TRIPOS>BOND
     1    23    24    1
     2    24    22    1
     3    21    22    1
     4    21    20    1
     5    20    15    1
     6    15    19   ar
     7    16    13    1
     8    16    19   ar
     9     2    10   ar
    10     3     9   ar
    11    11     3    1
    12    11    12    1
    13     4     6   ar
    14     5     4    1
    15     7     1   ar
    16     7     2   ar
    17    17    18   ar
    18    13     1    1
    19     8    10   ar
    20    15    17   ar
    21    16    18   ar
    22     1     8   ar
    23     2     9   ar
    24     3     4   ar
    25     6     7   ar
    26    13    14    1
@<TRIPOS>MOLECULE
Molport-051-982-927 MCULE-8994215766
 24 26 0 0 0
SMALL
GASTEIGER

@<TRIPOS>ATOM
      1 C          12.6789   41.3613    7.5898 C.ar    1  UNL1        0.1434
      2 C          14.6503   42.4714    7.0636 C.ar    1  UNL1        0.1305
      3 C          16.7605   42.1970    8.0612 C.ar    1  UNL1        0.0556
      4 C          16.2085   41.2227    8.9488 C.ar    1  UNL1       -0.0081
      5 C          17.0546   40.5177    9.9758 C.3     1  UNL1        0.0323
      6 C          14.8410   40.8855    8.8369 C.ar    1  UNL1        0.0018
      7 C          14.0590   41.5305    7.8750 C.ar    1  UNL1        0.0572
      8 N          12.1989   42.1487    6.5822 N.ar    1  UNL1       -0.1927
      9 N          15.9570   42.8083    7.1412 N.ar    1  UNL1       -0.2419
     10 S          13.4872   43.0598    6.0396 S.2     1  UNL1        0.0338
     11 C          18.2035   42.6257    8.1286 C.3     1  UNL1        0.0455
     12 C          18.3667   44.0567    7.6266 C.3     1  UNL1        0.0067
     13 N          11.8357   40.4354    8.2978 N.pl3   1  UNL1       -0.2762
     14 H          12.1019   39.4878    8.3167 H       1  UNL1        0.1556
     15 C           8.4907   41.6173    9.6961 C.ar    1  UNL1        0.1149
     16 C          10.6304   40.8109    8.9776 C.ar    1  UNL1        0.1868
     17 N           9.1807   40.9899   10.6748 N.ar    1  UNL1       -0.1439
     18 N          10.3721   40.5465   10.2779 N.ar    1  UNL1       -0.1256
     19 S           9.3512   41.6254    8.2458 S.2     1  UNL1       -0.0346
     20 C           7.1026   42.1482    9.8725 C.3     1  UNL1        0.0865
     21 C           6.3493   42.1690    8.5437 C.3     1  UNL1        0.1491
     22 O           5.7867   40.8967    8.2982 O.3     1  UNL1       -0.3533
     23 C           6.6230   41.6322    6.1845 C.3     1  UNL1        0.0346
     24 C           6.1892   40.4411    7.0248 C.3     1  UNL1        0.1423
@<TRIPOS>BOND
     1    23    24    1
     2    24    22    1
     3    21    22    1
     4    21    20    1
     5    20    15    1
     6    15    19   ar
     7    16    13    1
     8    16    19   ar
     9     2    10   ar
    10     3     9   ar
    11    11     3    1
    12    11    12    1
    13     4     6   ar
    14     5     4    1
    15     7     1   ar
    16     7     2   ar
    17    17    18   ar
    18    13     1    1
    19     8    10   ar
    20    15    17   ar
    21    16    18   ar
    22     1     8   ar
    23     2     9   ar
    24     3     4   ar
    25     6     7   ar
    26    13    14    1
@<TRIPOS>MOLECULE
Molport-051-982-927 MCULE-8994215766
 24 26 0 0 0
SMALL
GASTEIGER

@<TRIPOS>ATOM
      1 C          11.3550   40.4936    7.1869 C.ar    1  UNL1        0.1434
      2 C          13.4791   40.7866    8.0802 C.ar    1  UNL1        0.1305
      3 C          15.1117   42.3414    7.4166 C.ar    1  UNL1        0.0556
      4 C          14.2314   42.8241    6.3998 C.ar    1  UNL1       -0.0081
      5 C          14.6240   43.9520    5.4825 C.3     1  UNL1        0.0323
      6 C          12.9452   42.2528    6.2743 C.ar    1  UNL1        0.0018
      7 C          12.5763   41.2149    7.1342 C.ar    1  UNL1        0.0572
      8 N          11.3002   39.5244    8.1477 N.ar    1  UNL1       -0.1927
      9 N          14.7122   41.3193    8.2299 N.ar    1  UNL1       -0.2419
     10 S          12.7695   39.5583    8.9378 S.2     1  UNL1        0.0338
     11 C          16.5051   42.8839    7.6030 C.3     1  UNL1        0.0455
     12 C          17.2859   42.0371    8.6029 C.3     1  UNL1        0.0067
     13 N          10.2490   40.7511    6.3036 N.pl3   1  UNL1       -0.2762
     14 H          10.2305   40.2850    5.4366 H       1  UNL1        0.1556
     15 C           7.5620   43.1492    7.5566 C.ar    1  UNL1        0.1149
     16 C           9.1722   41.6465    6.6111 C.ar    1  UNL1        0.1868
     17 N           7.3457   42.8899    6.2475 N.ar    1  UNL1       -0.1439
     18 N           8.2367   42.0505    5.7229 N.ar    1  UNL1       -0.1256
     19 S           8.9265   42.3385    8.1263 S.2     1  UNL1       -0.0346
     20 C           6.7385   44.1092    8.3566 C.3     1  UNL1        0.0865
     21 C           5.4141   44.4118    7.6581 C.3     1  UNL1        0.1491
     22 O           4.3565   44.3264    8.5907 O.3     1  UNL1       -0.3533
     23 C           3.2486   42.3637    9.3838 C.3     1  UNL1        0.0346
     24 C           4.5307   43.1817    9.3972 C.3     1  UNL1        0.1423
@<TRIPOS>BOND
     1    23    24    1
     2    24    22    1
     3    21    22    1
     4    21    20    1
     5    20    15    1
     6    15    19   ar
     7    16    13    1
     8    16    19   ar
     9     2    10   ar
    10     3     9   ar
    11    11     3    1
    12    11    12    1
    13     4     6   ar
    14     5     4    1
    15     7     1   ar
    16     7     2   ar
    17    17    18   ar
    18    13     1    1
    19     8    10   ar
    20    15    17   ar
    21    16    18   ar
    22     1     8   ar
    23     2     9   ar
    24     3     4   ar
    25     6     7   ar
    26    13    14    1
