@<TRIPOS>MOLECULE
Molport-046-971-651 MCULE-3715949445 PubChem-110111589
 27 29 0 0 0
SMALL
GASTEIGER

@<TRIPOS>ATOM
      1 C          10.2251   40.7920    8.3378 C.ar    1  UNL1       -0.0165
      2 C          10.7940   41.5260    7.2946 C.ar    1  UNL1        0.0302
      3 C          12.1822   41.6691    7.2265 C.ar    1  UNL1        0.1329
      4 C          12.4382   40.3716    9.2039 C.ar    1  UNL1        0.1000
      5 C          11.0558   40.2082    9.3031 C.ar    1  UNL1        0.0166
      6 N          12.9672   41.0911    8.1785 N.ar    1  UNL1       -0.2291
      7 C           5.9655   41.2530   10.7199 C.2     1  UNL1        0.2500
      8 C           6.0028   41.6791    8.2192 C.3     1  UNL1        0.0935
      9 C           6.5837   40.7842    7.1289 C.3     1  UNL1        0.0219
     10 C           8.0959   40.9696    7.0500 C.3     1  UNL1        0.0078
     11 C           8.7379   40.6450    8.3999 C.3     1  UNL1        0.0424
     12 C           8.1463   41.5239    9.5025 C.3     1  UNL1        0.0978
     13 O           6.6106   41.1654   11.8022 O.2     1  UNL1       -0.2724
     14 N           6.6884   41.4258    9.4859 N.am    1  UNL1       -0.2773
     15 C           4.0489   40.1683   11.8177 C.3     1  UNL1        0.0390
     16 C           4.4437   41.1690   10.7471 C.3     1  UNL1        0.1610
     17 C           3.8038   42.4996   11.1565 C.3     1  UNL1        0.0390
     18 C           2.6468   41.2850    9.2916 C.3     1  UNL1        0.1745
     19 O           3.9144   40.7142    9.5132 O.3     1  UNL1       -0.3472
     20 N          12.7515   42.4248    6.1505 N.pl3   1  UNL1       -0.2834
     21 H          12.2837   42.3878    5.2850 H       1  UNL1        0.1550
     22 C          13.9354   43.2289    6.2121 C.ar    1  UNL1        0.1332
     23 C          15.0644   42.7262    6.8647 C.ar    1  UNL1        0.0345
     24 C          16.2226   43.5028    6.9295 C.ar    1  UNL1        0.0045
     25 C          16.2438   44.7697    6.3448 C.ar    1  UNL1        0.0208
     26 C          15.0981   45.2411    5.7007 C.ar    1  UNL1        0.1003
     27 N          13.9795   44.4691    5.6483 N.ar    1  UNL1       -0.2290
@<TRIPOS>BOND
     1    15    16    1
     2    16    17    1
     3    16     7    1
     4    16    19    1
     5     7    14   am
     6     8    14    1
     7     8     9    1
     8     9    10    1
     9    10    11    1
    10    11    12    1
    11    11     1    1
    12    12    14    1
    13     2     3   ar
    14     3    20    1
    15     4     6   ar
    16     5     1   ar
    17    22    27   ar
    18    23    24   ar
    19    25    26   ar
    20    18    19    1
    21    20    22    1
    22     7    13    2
    23     1     2   ar
    24     3     6   ar
    25     4     5   ar
    26    22    23   ar
    27    24    25   ar
    28    26    27   ar
    29    20    21    1
@<TRIPOS>MOLECULE
Molport-046-971-651 MCULE-3715949445 PubChem-110111589
 27 29 0 0 0
SMALL
GASTEIGER

@<TRIPOS>ATOM
      1 C          13.3534   39.8482   10.2963 C.ar    1  UNL1       -0.0165
      2 C          14.3905   40.4273    9.5614 C.ar    1  UNL1        0.0302
      3 C          15.7171   40.1410    9.8936 C.ar    1  UNL1        0.1329
      4 C          14.9947   38.7229   11.6619 C.ar    1  UNL1        0.1000
      5 C          13.6584   38.9866   11.3580 C.ar    1  UNL1        0.0166
      6 N          15.9860   39.2994   10.9311 N.ar    1  UNL1       -0.2291
      7 C           9.7568   43.0674    9.4406 C.2     1  UNL1        0.2500
      8 C           9.8425   40.9525    8.0418 C.3     1  UNL1        0.0935
      9 C           9.9623   39.5133    8.5331 C.3     1  UNL1        0.0219
     10 C          11.4160   39.1936    8.8677 C.3     1  UNL1        0.0078
     11 C          11.9373   40.1617    9.9310 C.3     1  UNL1        0.0424
     12 C          11.8019   41.6083    9.4547 C.3     1  UNL1        0.0978
     13 O          10.3634   43.8799   10.1935 O.2     1  UNL1       -0.2724
     14 N          10.4284   41.8624    9.0254 N.am    1  UNL1       -0.2773
     15 C           7.3850   42.5503    9.8430 C.3     1  UNL1        0.0390
     16 C           8.3326   43.3797    8.9958 C.3     1  UNL1        0.1610
     17 C           7.9595   44.8430    9.2549 C.3     1  UNL1        0.0390
     18 C           6.9433   43.6620    7.1653 C.3     1  UNL1        0.1745
     19 O           8.1124   43.0366    7.6381 O.3     1  UNL1       -0.3472
     20 N          16.7703   40.7422    9.1307 N.pl3   1  UNL1       -0.2834
     21 H          17.6388   40.2784    9.1293 H       1  UNL1        0.1550
     22 C          16.6822   41.9528    8.3699 C.ar    1  UNL1        0.1332
     23 C          17.7463   42.8579    8.4083 C.ar    1  UNL1        0.0345
     24 C          17.6690   44.0401    7.6700 C.ar    1  UNL1        0.0045
     25 C          16.5346   44.3077    6.9027 C.ar    1  UNL1        0.0208
     26 C          15.4897   43.3817    6.8871 C.ar    1  UNL1        0.1003
     27 N          15.5841   42.2355    7.6134 N.ar    1  UNL1       -0.2290
@<TRIPOS>BOND
     1    15    16    1
     2    16    17    1
     3    16     7    1
     4    16    19    1
     5     7    14   am
     6     8    14    1
     7     8     9    1
     8     9    10    1
     9    10    11    1
    10    11    12    1
    11    11     1    1
    12    12    14    1
    13     2     3   ar
    14     3    20    1
    15     4     6   ar
    16     5     1   ar
    17    22    27   ar
    18    23    24   ar
    19    25    26   ar
    20    18    19    1
    21    20    22    1
    22     7    13    2
    23     1     2   ar
    24     3     6   ar
    25     4     5   ar
    26    22    23   ar
    27    24    25   ar
    28    26    27   ar
    29    20    21    1
@<TRIPOS>MOLECULE
Molport-046-971-651 MCULE-3715949445 PubChem-110111589
 27 29 0 0 0
SMALL
GASTEIGER

@<TRIPOS>ATOM
      1 C          11.4754   41.4346    8.8899 C.ar    1  UNL1       -0.0165
      2 C          12.3025   42.1585    8.0282 C.ar    1  UNL1        0.0302
      3 C          13.5360   41.6265    7.6442 C.ar    1  UNL1        0.1329
      4 C          13.1333   39.6817    8.9539 C.ar    1  UNL1        0.1000
      5 C          11.8949   40.1825    9.3581 C.ar    1  UNL1        0.0166
      6 N          13.9199   40.4064    8.1142 N.ar    1  UNL1       -0.2291
      7 C           6.5759   41.2996    8.9717 C.2     1  UNL1        0.2500
      8 C           7.7941   42.1745   11.0180 C.3     1  UNL1        0.0935
      9 C           8.8849   43.2396   11.0699 C.3     1  UNL1        0.0219
     10 C          10.2310   42.6291   10.6920 C.3     1  UNL1        0.0078
     11 C          10.1569   42.0141    9.2935 C.3     1  UNL1        0.0424
     12 C           9.0518   40.9594    9.2271 C.3     1  UNL1        0.0978
     13 O           6.6196   40.6244    7.9053 O.2     1  UNL1       -0.2724
     14 N           7.7939   41.5285    9.7059 N.am    1  UNL1       -0.2773
     15 C           5.1752   41.6886   10.9571 C.3     1  UNL1        0.0390
     16 C           5.2401   41.8570    9.4502 C.3     1  UNL1        0.1610
     17 C           5.1206   43.3619    9.1882 C.3     1  UNL1        0.0390
     18 C           2.9443   41.5635    9.5097 C.3     1  UNL1        0.1745
     19 O           4.1413   41.1592    8.8889 O.3     1  UNL1       -0.3472
     20 N          14.3737   42.3805    6.7596 N.pl3   1  UNL1       -0.2834
     21 H          14.0216   42.5579    5.8574 H       1  UNL1        0.1550
     22 C          15.6738   42.9012    7.0606 C.ar    1  UNL1        0.1332
     23 C          16.2777   43.7823    6.1596 C.ar    1  UNL1        0.0345
     24 C          17.5446   44.2948    6.4449 C.ar    1  UNL1        0.0045
     25 C          18.1952   43.9245    7.6226 C.ar    1  UNL1        0.0208
     26 C          17.5630   43.0421    8.5007 C.ar    1  UNL1        0.1003
     27 N          16.3284   42.5538    8.2047 N.ar    1  UNL1       -0.2290
@<TRIPOS>BOND
     1    15    16    1
     2    16    17    1
     3    16     7    1
     4    16    19    1
     5     7    14   am
     6     8    14    1
     7     8     9    1
     8     9    10    1
     9    10    11    1
    10    11    12    1
    11    11     1    1
    12    12    14    1
    13     2     3   ar
    14     3    20    1
    15     4     6   ar
    16     5     1   ar
    17    22    27   ar
    18    23    24   ar
    19    25    26   ar
    20    18    19    1
    21    20    22    1
    22     7    13    2
    23     1     2   ar
    24     3     6   ar
    25     4     5   ar
    26    22    23   ar
    27    24    25   ar
    28    26    27   ar
    29    20    21    1
@<TRIPOS>MOLECULE
Molport-046-971-651 MCULE-3715949445 PubChem-110111589
 27 29 0 0 0
SMALL
GASTEIGER

@<TRIPOS>ATOM
      1 C          12.5494   40.5464    9.8721 C.ar    1  UNL1       -0.0165
      2 C          13.7314   40.8808    9.2076 C.ar    1  UNL1        0.0302
      3 C          14.9467   40.3515    9.6494 C.ar    1  UNL1        0.1329
      4 C          13.8300   39.1729   11.3882 C.ar    1  UNL1        0.1000
      5 C          12.5986   39.6830   10.9743 C.ar    1  UNL1        0.0166
      6 N          14.9665   39.5141   10.7242 N.ar    1  UNL1       -0.2291
      7 C           8.4167   40.2008    7.2582 C.2     1  UNL1        0.2500
      8 C           8.3424   41.4265    9.4783 C.3     1  UNL1        0.0935
      9 C           9.2702   42.5362    9.9628 C.3     1  UNL1        0.0219
     10 C          10.5725   41.9385   10.4862 C.3     1  UNL1        0.0078
     11 C          11.2544   41.1186    9.3896 C.3     1  UNL1        0.0424
     12 C          10.3232   40.0163    8.8838 C.3     1  UNL1        0.0978
     13 O           9.0108   39.3765    6.5082 O.2     1  UNL1       -0.2724
     14 N           9.0368   40.5924    8.4981 N.am    1  UNL1       -0.2773
     15 C           6.3041   39.6583    6.1192 C.3     1  UNL1        0.0390
     16 C           7.0651   40.7617    6.8310 C.3     1  UNL1        0.1610
     17 C           6.2041   41.1599    8.0342 C.3     1  UNL1        0.0390
     18 C           6.8898   43.0562    6.5761 C.3     1  UNL1        0.1745
     19 O           7.2010   41.8460    5.9281 O.3     1  UNL1       -0.3472
     20 N          16.1510   40.7034    8.9577 N.pl3   1  UNL1       -0.2834
     21 H          16.8688   40.0297    8.9438 H       1  UNL1        0.1550
     22 C          16.4120   41.9407    8.2844 C.ar    1  UNL1        0.1332
     23 C          17.5911   42.6340    8.5708 C.ar    1  UNL1        0.0345
     24 C          17.8536   43.8405    7.9193 C.ar    1  UNL1        0.0045
     25 C          16.9403   44.3425    6.9913 C.ar    1  UNL1        0.0208
     26 C          15.7721   43.6242    6.7292 C.ar    1  UNL1        0.1003
     27 N          15.5346   42.4505    7.3743 N.ar    1  UNL1       -0.2290
@<TRIPOS>BOND
     1    15    16    1
     2    16    17    1
     3    16     7    1
     4    16    19    1
     5     7    14   am
     6     8    14    1
     7     8     9    1
     8     9    10    1
     9    10    11    1
    10    11    12    1
    11    11     1    1
    12    12    14    1
    13     2     3   ar
    14     3    20    1
    15     4     6   ar
    16     5     1   ar
    17    22    27   ar
    18    23    24   ar
    19    25    26   ar
    20    18    19    1
    21    20    22    1
    22     7    13    2
    23     1     2   ar
    24     3     6   ar
    25     4     5   ar
    26    22    23   ar
    27    24    25   ar
    28    26    27   ar
    29    20    21    1
@<TRIPOS>MOLECULE
Molport-046-971-651 MCULE-3715949445 PubChem-110111589
 27 29 0 0 0
SMALL
GASTEIGER

@<TRIPOS>ATOM
      1 C          12.0349   39.3649    7.9705 C.ar    1  UNL1       -0.0165
      2 C          11.0851   39.9971    7.1650 C.ar    1  UNL1        0.0302
      3 C           9.7719   39.5205    7.1402 C.ar    1  UNL1        0.1329
      4 C          10.3365   37.8106    8.6950 C.ar    1  UNL1        0.1000
      5 C          11.6570   38.2597    8.7442 C.ar    1  UNL1        0.0166
      6 N           9.4309   38.4436    7.9024 N.ar    1  UNL1       -0.2291
      7 C          15.3314   42.8502    6.9620 C.2     1  UNL1        0.2500
      8 C          15.6026   41.5143    9.1018 C.3     1  UNL1        0.0935
      9 C          15.5919   39.9974    9.2623 C.3     1  UNL1        0.0219
     10 C          14.1558   39.4828    9.2786 C.3     1  UNL1        0.0078
     11 C          13.4374   39.8844    7.9893 C.3     1  UNL1        0.0424
     12 C          13.4614   41.4028    7.8103 C.3     1  UNL1        0.0978
     13 O          14.5741   43.2358    6.0278 O.2     1  UNL1       -0.2724
     14 N          14.8339   41.8929    7.9167 N.am    1  UNL1       -0.2773
     15 C          17.6605   42.2801    7.5143 C.3     1  UNL1        0.0390
     16 C          16.7494   43.4024    7.0521 C.3     1  UNL1        0.1610
     17 C          17.2811   43.8414    5.6839 C.3     1  UNL1        0.0390
     18 C          17.6656   44.0659    9.0722 C.3     1  UNL1        0.1745
     19 O          16.8501   44.4574    7.9937 O.3     1  UNL1       -0.3472
     20 N           8.8085   40.1792    6.3092 N.pl3   1  UNL1       -0.2834
     21 H           8.7258   39.8566    5.3828 H       1  UNL1        0.1550
     22 C           7.9539   41.2620    6.6958 C.ar    1  UNL1        0.1332
     23 C           7.4727   41.3123    8.0069 C.ar    1  UNL1        0.0345
     24 C           6.6394   42.3638    8.3925 C.ar    1  UNL1        0.0045
     25 C           6.2947   43.3521    7.4696 C.ar    1  UNL1        0.0208
     26 C           6.7931   43.2710    6.1678 C.ar    1  UNL1        0.1003
     27 N           7.6038   42.2385    5.8117 N.ar    1  UNL1       -0.2290
@<TRIPOS>BOND
     1    15    16    1
     2    16    17    1
     3    16     7    1
     4    16    19    1
     5     7    14   am
     6     8    14    1
     7     8     9    1
     8     9    10    1
     9    10    11    1
    10    11    12    1
    11    11     1    1
    12    12    14    1
    13     2     3   ar
    14     3    20    1
    15     4     6   ar
    16     5     1   ar
    17    22    27   ar
    18    23    24   ar
    19    25    26   ar
    20    18    19    1
    21    20    22    1
    22     7    13    2
    23     1     2   ar
    24     3     6   ar
    25     4     5   ar
    26    22    23   ar
    27    24    25   ar
    28    26    27   ar
    29    20    21    1
@<TRIPOS>MOLECULE
Molport-046-971-651 MCULE-3715949445 PubChem-110111589
 27 29 0 0 0
SMALL
GASTEIGER

@<TRIPOS>ATOM
      1 C          11.7273   40.5650    9.4959 C.ar    1  UNL1       -0.0165
      2 C          12.7891   40.9717    8.6848 C.ar    1  UNL1        0.0302
      3 C          14.1034   40.7378    9.0970 C.ar    1  UNL1        0.1329
      4 C          13.3205   39.7093   11.0942 C.ar    1  UNL1        0.1000
      5 C          11.9955   39.9267   10.7139 C.ar    1  UNL1        0.0166
      6 N          14.3363   40.1150   10.2864 N.ar    1  UNL1       -0.2291
      7 C           7.0648   41.7479   10.4407 C.2     1  UNL1        0.2500
      8 C           8.1066   42.5751    8.2803 C.3     1  UNL1        0.0935
      9 C           8.8646   41.7593    7.2378 C.3     1  UNL1        0.0219
     10 C          10.3037   41.5365    7.6925 C.3     1  UNL1        0.0078
     11 C          10.3246   40.8202    9.0438 C.3     1  UNL1        0.0424
     12 C           9.5492   41.6217   10.0900 C.3     1  UNL1        0.0978
     13 O           7.2336   41.3014   11.6100 O.2     1  UNL1       -0.2724
     14 N           8.2117   41.9288    9.5880 N.am    1  UNL1       -0.2773
     15 C           5.2851   41.0846    8.8763 C.3     1  UNL1        0.0390
     16 C           5.6557   42.0782    9.9620 C.3     1  UNL1        0.1610
     17 C           4.6162   41.8969   11.0728 C.3     1  UNL1        0.0390
     18 C           4.2979   43.5891    8.8511 C.3     1  UNL1        0.1745
     19 O           5.5751   43.3790    9.4042 O.3     1  UNL1       -0.3472
     20 N          15.1823   41.1605    8.2544 N.pl3   1  UNL1       -0.2834
     21 H          15.9751   40.5779    8.2213 H       1  UNL1        0.1550
     22 C          15.2190   42.3489    7.4552 C.ar    1  UNL1        0.1332
     23 C          14.2280   42.5493    6.4905 C.ar    1  UNL1        0.0345
     24 C          14.2558   43.7045    5.7072 C.ar    1  UNL1        0.0045
     25 C          15.2689   44.6461    5.8929 C.ar    1  UNL1        0.0208
     26 C          16.2433   44.4142    6.8657 C.ar    1  UNL1        0.1003
     27 N          16.1987   43.2824    7.6188 N.ar    1  UNL1       -0.2290
@<TRIPOS>BOND
     1    15    16    1
     2    16    17    1
     3    16     7    1
     4    16    19    1
     5     7    14   am
     6     8    14    1
     7     8     9    1
     8     9    10    1
     9    10    11    1
    10    11    12    1
    11    11     1    1
    12    12    14    1
    13     2     3   ar
    14     3    20    1
    15     4     6   ar
    16     5     1   ar
    17    22    27   ar
    18    23    24   ar
    19    25    26   ar
    20    18    19    1
    21    20    22    1
    22     7    13    2
    23     1     2   ar
    24     3     6   ar
    25     4     5   ar
    26    22    23   ar
    27    24    25   ar
    28    26    27   ar
    29    20    21    1
@<TRIPOS>MOLECULE
Molport-046-971-651 MCULE-3715949445 PubChem-110111589
 27 29 0 0 0
SMALL
GASTEIGER

@<TRIPOS>ATOM
      1 C          14.2893   41.8746    7.8859 C.ar    1  UNL1       -0.0165
      2 C          15.3042   41.3170    8.6669 C.ar    1  UNL1        0.0302
      3 C          16.6216   41.7521    8.5022 C.ar    1  UNL1        0.1329
      4 C          15.9337   43.2749    6.8089 C.ar    1  UNL1        0.1000
      5 C          14.6070   42.8644    6.9467 C.ar    1  UNL1        0.0166
      6 N          16.9034   42.7162    7.5813 N.ar    1  UNL1       -0.2291
      7 C           9.7794   41.0449    6.1530 C.2     1  UNL1        0.2500
      8 C          10.7455   39.4115    7.8368 C.3     1  UNL1        0.0935
      9 C          11.3850   39.7299    9.1845 C.3     1  UNL1        0.0219
     10 C          12.8302   40.1762    8.9858 C.3     1  UNL1        0.0078
     11 C          12.8826   41.4014    8.0716 C.3     1  UNL1        0.0424
     12 C          12.2250   41.0969    6.7251 C.3     1  UNL1        0.0978
     13 O           9.9862   41.9538    5.3008 O.2     1  UNL1       -0.2724
     14 N          10.8838   40.5577    6.9391 N.am    1  UNL1       -0.2773
     15 C           8.3771   39.0403    5.8885 C.3     1  UNL1        0.0390
     16 C           8.3698   40.4923    6.3303 C.3     1  UNL1        0.1610
     17 C           7.9386   40.4840    7.8005 C.3     1  UNL1        0.0390
     18 C           6.7817   42.1767    6.2946 C.3     1  UNL1        0.1745
     19 O           7.4237   41.1830    5.5319 O.3     1  UNL1       -0.3472
     20 N          17.6521   41.1711    9.3105 N.pl3   1  UNL1       -0.2834
     21 H          18.4328   41.7367    9.5098 H       1  UNL1        0.1550
     22 C          17.6563   39.8467    9.8567 C.ar    1  UNL1        0.1332
     23 C          16.6429   39.4751   10.7443 C.ar    1  UNL1        0.0345
     24 C          16.6390   38.1866   11.2814 C.ar    1  UNL1        0.0045
     25 C          17.6431   37.2837   10.9294 C.ar    1  UNL1        0.0208
     26 C          18.6406   37.6880   10.0400 C.ar    1  UNL1        0.1003
     27 N          18.6267   38.9479    9.5274 N.ar    1  UNL1       -0.2290
@<TRIPOS>BOND
     1    15    16    1
     2    16    17    1
     3    16     7    1
     4    16    19    1
     5     7    14   am
     6     8    14    1
     7     8     9    1
     8     9    10    1
     9    10    11    1
    10    11    12    1
    11    11     1    1
    12    12    14    1
    13     2     3   ar
    14     3    20    1
    15     4     6   ar
    16     5     1   ar
    17    22    27   ar
    18    23    24   ar
    19    25    26   ar
    20    18    19    1
    21    20    22    1
    22     7    13    2
    23     1     2   ar
    24     3     6   ar
    25     4     5   ar
    26    22    23   ar
    27    24    25   ar
    28    26    27   ar
    29    20    21    1
@<TRIPOS>MOLECULE
Molport-046-971-651 MCULE-3715949445 PubChem-110111589
 27 29 0 0 0
SMALL
GASTEIGER

@<TRIPOS>ATOM
      1 C          12.4295   40.5503   10.3700 C.ar    1  UNL1       -0.0165
      2 C          13.5134   40.8733    9.5505 C.ar    1  UNL1        0.0302
      3 C          14.7042   40.1511    9.6621 C.ar    1  UNL1        0.1329
      4 C          13.7559   38.8042   11.3786 C.ar    1  UNL1        0.1000
      5 C          12.5516   39.5044   11.2941 C.ar    1  UNL1        0.0166
      6 N          14.7963   39.1385   10.5693 N.ar    1  UNL1       -0.2291
      7 C           8.5808   42.0753    7.7447 C.2     1  UNL1        0.2500
      8 C           8.2408   41.5785   10.2093 C.3     1  UNL1        0.0935
      9 C           9.0653   42.0897   11.3864 C.3     1  UNL1        0.0219
     10 C          10.3399   41.2639   11.5307 C.3     1  UNL1        0.0078
     11 C          11.1597   41.3300   10.2411 C.3     1  UNL1        0.0424
     12 C          10.3333   40.8383    9.0522 C.3     1  UNL1        0.0978
     13 O           9.2811   41.9164    6.7058 O.2     1  UNL1       -0.2724
     14 N           9.0628   41.5583    8.9999 N.am    1  UNL1       -0.2773
     15 C           7.3916   44.1358    8.3732 C.3     1  UNL1        0.0390
     16 C           7.2500   42.8121    7.6445 C.3     1  UNL1        0.1610
     17 C           6.8975   43.1635    6.1955 C.3     1  UNL1        0.0390
     18 C           5.2454   42.9827    8.7904 C.3     1  UNL1        0.1745
     19 O           6.1955   42.0906    8.2586 O.3     1  UNL1       -0.3472
     20 N          15.8074   40.4938    8.8146 N.pl3   1  UNL1       -0.2834
     21 H          16.4279   39.7673    8.5770 H       1  UNL1        0.1550
     22 C          16.0951   41.7911    8.2796 C.ar    1  UNL1        0.1332
     23 C          17.2327   42.4713    8.7227 C.ar    1  UNL1        0.0345
     24 C          17.5209   43.7361    8.2068 C.ar    1  UNL1        0.0045
     25 C          16.6743   44.3088    7.2567 C.ar    1  UNL1        0.0208
     26 C          15.5462   43.6016    6.8362 C.ar    1  UNL1        0.1003
     27 N          15.2828   42.3704    7.3509 N.ar    1  UNL1       -0.2290
@<TRIPOS>BOND
     1    15    16    1
     2    16    17    1
     3    16     7    1
     4    16    19    1
     5     7    14   am
     6     8    14    1
     7     8     9    1
     8     9    10    1
     9    10    11    1
    10    11    12    1
    11    11     1    1
    12    12    14    1
    13     2     3   ar
    14     3    20    1
    15     4     6   ar
    16     5     1   ar
    17    22    27   ar
    18    23    24   ar
    19    25    26   ar
    20    18    19    1
    21    20    22    1
    22     7    13    2
    23     1     2   ar
    24     3     6   ar
    25     4     5   ar
    26    22    23   ar
    27    24    25   ar
    28    26    27   ar
    29    20    21    1
@<TRIPOS>MOLECULE
Molport-046-971-651 MCULE-3715949445 PubChem-110111589
 27 29 0 0 0
SMALL
GASTEIGER

@<TRIPOS>ATOM
      1 C          10.5901   41.2484   10.9761 C.ar    1  UNL1       -0.0165
      2 C          10.0945   42.3283   10.2419 C.ar    1  UNL1        0.0302
      3 C           8.9055   42.9462   10.6376 C.ar    1  UNL1        0.1329
      4 C           8.7025   41.4400   12.4679 C.ar    1  UNL1        0.1000
      5 C           9.8869   40.7991   12.1014 C.ar    1  UNL1        0.0166
      6 N           8.2412   42.4892   11.7362 N.ar    1  UNL1       -0.2291
      7 C          13.2713   37.2401   10.0955 C.2     1  UNL1        0.2500
      8 C          13.5724   39.2516    8.5789 C.3     1  UNL1        0.0935
      9 C          13.8255   40.6991    8.9883 C.3     1  UNL1        0.0219
     10 C          12.5141   41.3656    9.3926 C.3     1  UNL1        0.0078
     11 C          11.8642   40.5954   10.5432 C.3     1  UNL1        0.0424
     12 C          11.6257   39.1376   10.1482 C.3     1  UNL1        0.0978
     13 O          12.5514   36.6271   10.9328 O.2     1  UNL1       -0.2724
     14 N          12.8673   38.5493    9.6505 N.am    1  UNL1       -0.2773
     15 C          14.6034   36.7781    8.0788 C.3     1  UNL1        0.0390
     16 C          14.5476   36.5828    9.5829 C.3     1  UNL1        0.1610
     17 C          15.8041   37.2572   10.1430 C.3     1  UNL1        0.0390
     18 C          15.1839   34.5098    8.7714 C.3     1  UNL1        0.1745
     19 O          14.5674   35.1887    9.8393 O.3     1  UNL1       -0.3472
     20 N           8.4095   44.0529    9.8748 N.pl3   1  UNL1       -0.2834
     21 H           8.7458   44.9460   10.1168 H       1  UNL1        0.1550
     22 C           7.4716   43.9857    8.7941 C.ar    1  UNL1        0.1332
     23 C           7.7648   43.1813    7.6896 C.ar    1  UNL1        0.0345
     24 C           6.8566   43.1098    6.6318 C.ar    1  UNL1        0.0045
     25 C           5.6681   43.8391    6.6855 C.ar    1  UNL1        0.0208
     26 C           5.4067   44.6329    7.8040 C.ar    1  UNL1        0.1003
     27 N           6.3044   44.6891    8.8244 N.ar    1  UNL1       -0.2290
@<TRIPOS>BOND
     1    15    16    1
     2    16    17    1
     3    16     7    1
     4    16    19    1
     5     7    14   am
     6     8    14    1
     7     8     9    1
     8     9    10    1
     9    10    11    1
    10    11    12    1
    11    11     1    1
    12    12    14    1
    13     2     3   ar
    14     3    20    1
    15     4     6   ar
    16     5     1   ar
    17    22    27   ar
    18    23    24   ar
    19    25    26   ar
    20    18    19    1
    21    20    22    1
    22     7    13    2
    23     1     2   ar
    24     3     6   ar
    25     4     5   ar
    26    22    23   ar
    27    24    25   ar
    28    26    27   ar
    29    20    21    1
@<TRIPOS>MOLECULE
Molport-046-971-651 MCULE-3715949445 PubChem-110111589
 27 29 0 0 0
SMALL
GASTEIGER

@<TRIPOS>ATOM
      1 C           8.8989   40.1610    7.8286 C.ar    1  UNL1       -0.0165
      2 C           7.8699   40.9976    8.2666 C.ar    1  UNL1        0.0302
      3 C           6.6349   40.9750    7.6136 C.ar    1  UNL1        0.1329
      4 C           7.4319   39.3126    6.1100 C.ar    1  UNL1        0.1000
      5 C           8.6780   39.3090    6.7386 C.ar    1  UNL1        0.0166
      6 N           6.4466   40.1368    6.5559 N.ar    1  UNL1       -0.2291
      7 C          12.8584   37.8981    9.6265 C.2     1  UNL1        0.2500
      8 C          13.1453   40.2004    8.5999 C.3     1  UNL1        0.0935
      9 C          12.3445   41.4631    8.9023 C.3     1  UNL1        0.0219
     10 C          11.0193   41.4359    8.1471 C.3     1  UNL1        0.0078
     11 C          10.2164   40.1934    8.5359 C.3     1  UNL1        0.0424
     12 C          11.0203   38.9234    8.2549 C.3     1  UNL1        0.0978
     13 O          12.1585   36.8526    9.7352 O.2     1  UNL1       -0.2724
     14 N          12.3341   39.0182    8.8877 N.am    1  UNL1       -0.2773
     15 C          15.1576   38.7367    9.3709 C.3     1  UNL1        0.0390
     16 C          14.2338   37.9494   10.2819 C.3     1  UNL1        0.1610
     17 C          14.2062   38.7080   11.6128 C.3     1  UNL1        0.0390
     18 C          15.5728   36.3178    9.3303 C.3     1  UNL1        0.1745
     19 O          14.7907   36.6567   10.4505 O.3     1  UNL1       -0.3472
     20 N           5.5887   41.8387    8.0743 N.pl3   1  UNL1       -0.2834
     21 H           5.3654   42.6098    7.5044 H       1  UNL1        0.1550
     22 C           4.8360   41.6888    9.2840 C.ar    1  UNL1        0.1332
     23 C           3.5470   42.2244    9.3524 C.ar    1  UNL1        0.0345
     24 C           2.8062   42.0831   10.5271 C.ar    1  UNL1        0.0045
     25 C           3.3564   41.4110   11.6193 C.ar    1  UNL1        0.0208
     26 C           4.6470   40.8882   11.5168 C.ar    1  UNL1        0.1003
     27 N           5.3527   41.0363   10.3634 N.ar    1  UNL1       -0.2290
@<TRIPOS>BOND
     1    15    16    1
     2    16    17    1
     3    16     7    1
     4    16    19    1
     5     7    14   am
     6     8    14    1
     7     8     9    1
     8     9    10    1
     9    10    11    1
    10    11    12    1
    11    11     1    1
    12    12    14    1
    13     2     3   ar
    14     3    20    1
    15     4     6   ar
    16     5     1   ar
    17    22    27   ar
    18    23    24   ar
    19    25    26   ar
    20    18    19    1
    21    20    22    1
    22     7    13    2
    23     1     2   ar
    24     3     6   ar
    25     4     5   ar
    26    22    23   ar
    27    24    25   ar
    28    26    27   ar
    29    20    21    1
