@<TRIPOS>MOLECULE
MolPort-051-503-666 CSSS09880955598 CUKKFBFHUUWVRM-UHFFFAOYSA-N MCULE-6661315209 PubChem-164697507
 26 27 0 0 0
SMALL
GASTEIGER

@<TRIPOS>ATOM
      1 C          13.7067   40.2586    8.7413 C.ar    1  UNL1        0.1550
      2 C          14.2609   41.2998    8.0447 C.ar    1  UNL1        0.0504
      3 C          15.5563   41.3453    8.4712 C.ar    1  UNL1        0.0766
      4 C          16.4578   42.2845    7.9793 C.ar    1  UNL1        0.0224
      5 C          15.9849   43.2117    7.0240 C.ar    1  UNL1        0.0729
      6 C          14.6404   43.1409    6.5765 C.ar    1  UNL1        0.0040
      7 C          13.7542   42.1772    7.0923 C.ar    1  UNL1        0.0043
      8 N          15.7859   40.3810    9.3817 N.ar    1  UNL1       -0.2745
      9 N          14.6468   39.7125    9.5477 N.ar    1  UNL1       -0.1574
     10 H          16.6387   40.2030    9.8402 H       1  UNL1        0.1890
     11 C          11.9272   38.4526    8.7925 C.2     1  UNL1        0.2287
     12 N          12.3523   39.8096    8.6316 N.am    1  UNL1       -0.2679
     13 O          12.7556   37.5388    9.0492 O.2     1  UNL1       -0.2747
     14 H          11.6629   40.4831    8.4308 H       1  UNL1        0.1563
     15 C          10.4874   38.1103    8.6187 C.3     1  UNL1        0.1042
     16 C           9.8543   38.9885    7.5531 C.3     1  UNL1        0.1006
     17 N           9.2958   38.1631    6.4933 N.3     1  UNL1       -0.1828
     18 H           8.3306   37.9192    6.7153 H       1  UNL1        0.1484
     19 C          10.8740   39.9914    4.9305 C.3     1  UNL1        0.1957
     20 O           9.2646   38.1425    3.8560 O.2     1  UNL1       -0.1575
     21 O           8.1896   40.0357    4.9790 O.2     1  UNL1       -0.1575
     22 S           9.3493   39.0803    5.0264 S.O2    1  UNL1        0.0426
     23 C          16.9254   44.2139    6.4209 C.3     1  UNL1        0.4186
     24 F          16.2339   45.3775    6.1402 F       1  UNL1       -0.1659
     25 F          17.9547   44.5007    7.3008 F       1  UNL1       -0.1659
     26 F          17.4721   43.7189    5.2495 F       1  UNL1       -0.1659
@<TRIPOS>BOND
     1    11    12   am
     2     1     2   ar
     3     3     4   ar
     4     3     8   ar
     5     5     6   ar
     6    23     5    1
     7    23    24    1
     8    23    25    1
     9    23    26    1
    10     7     2   ar
    11    15    11    1
    12    15    16    1
    13    16    17    1
    14    12     1    1
    15     8     9   ar
    16    22    17    1
    17    22    19    1
    18    11    13    2
    19     1     9   ar
    20     2     3   ar
    21     4     5   ar
    22     6     7   ar
    23    22    20    2
    24    22    21    2
    25    12    14    1
    26     8    10    1
    27    17    18    1
@<TRIPOS>MOLECULE
MolPort-051-503-666 CSSS09880955598 CUKKFBFHUUWVRM-UHFFFAOYSA-N MCULE-6661315209 PubChem-164697507
 26 27 0 0 0
SMALL
GASTEIGER

@<TRIPOS>ATOM
      1 C          12.3650   40.4399    7.3388 C.ar    1  UNL1        0.1550
      2 C          13.4495   41.2764    7.3157 C.ar    1  UNL1        0.0504
      3 C          13.1489   42.1996    6.3568 C.ar    1  UNL1        0.0766
      4 C          14.0194   43.2379    6.0399 C.ar    1  UNL1        0.0224
      5 C          15.2464   43.3028    6.7374 C.ar    1  UNL1        0.0729
      6 C          15.5375   42.3467    7.7444 C.ar    1  UNL1        0.0040
      7 C          14.6344   41.3097    8.0428 C.ar    1  UNL1        0.0043
      8 N          11.9415   41.9437    5.8198 N.ar    1  UNL1       -0.2745
      9 N          11.4595   40.8602    6.4245 N.ar    1  UNL1       -0.1574
     10 H          11.4969   42.4622    5.1107 H       1  UNL1        0.1890
     11 C          10.9461   38.7825    8.6313 C.2     1  UNL1        0.2287
     12 N          12.2052   39.3057    8.1968 N.am    1  UNL1       -0.2679
     13 O           9.8625   39.3134    8.2691 O.2     1  UNL1       -0.2747
     14 H          13.0208   38.8525    8.5110 H       1  UNL1        0.1563
     15 C          10.9179   37.6134    9.5547 C.3     1  UNL1        0.1042
     16 C          12.3065   37.0153    9.7021 C.3     1  UNL1        0.1006
     17 N          13.0658   37.7560   10.6977 N.3     1  UNL1       -0.1828
     18 H          12.6659   37.6034   11.6235 H       1  UNL1        0.1484
     19 C          15.7188   38.2913    9.7225 C.3     1  UNL1        0.1957
     20 O          15.2225   37.0884   12.0614 O.2     1  UNL1       -0.1575
     21 O          14.7368   35.8109   10.0284 O.2     1  UNL1       -0.1575
     22 S          14.6960   37.1757   10.6572 S.O2    1  UNL1        0.0426
     23 C          16.2013   44.4303    6.4736 C.3     1  UNL1        0.4186
     24 F          17.0676   44.0669    5.4595 F       1  UNL1       -0.1659
     25 F          15.5115   45.5683    6.0929 F       1  UNL1       -0.1659
     26 F          16.9335   44.7191    7.6123 F       1  UNL1       -0.1659
@<TRIPOS>BOND
     1    11    12   am
     2     1     2   ar
     3     3     4   ar
     4     3     8   ar
     5     5     6   ar
     6    23     5    1
     7    23    24    1
     8    23    25    1
     9    23    26    1
    10     7     2   ar
    11    15    11    1
    12    15    16    1
    13    16    17    1
    14    12     1    1
    15     8     9   ar
    16    22    17    1
    17    22    19    1
    18    11    13    2
    19     1     9   ar
    20     2     3   ar
    21     4     5   ar
    22     6     7   ar
    23    22    20    2
    24    22    21    2
    25    12    14    1
    26     8    10    1
    27    17    18    1
@<TRIPOS>MOLECULE
MolPort-051-503-666 CSSS09880955598 CUKKFBFHUUWVRM-UHFFFAOYSA-N MCULE-6661315209 PubChem-164697507
 26 27 0 0 0
SMALL
GASTEIGER

@<TRIPOS>ATOM
      1 C          15.1281   39.8855    9.6470 C.ar    1  UNL1        0.1550
      2 C          15.3470   40.9377    8.7975 C.ar    1  UNL1        0.0504
      3 C          16.6655   41.2456    8.9675 C.ar    1  UNL1        0.0766
      4 C          17.2750   42.2767    8.2590 C.ar    1  UNL1        0.0224
      5 C          16.4770   43.0157    7.3572 C.ar    1  UNL1        0.0729
      6 C          15.1122   42.6724    7.1775 C.ar    1  UNL1        0.0040
      7 C          14.5262   41.6222    7.9079 C.ar    1  UNL1        0.0043
      8 N          17.2273   40.4242    9.8736 N.ar    1  UNL1       -0.2745
      9 N          16.2804   39.5872   10.2917 N.ar    1  UNL1       -0.1574
     10 H          18.1654   40.4394   10.1721 H       1  UNL1        0.1890
     11 C          13.5643   37.9292    9.2494 C.2     1  UNL1        0.2287
     12 N          13.8837   39.2010    9.8225 N.am    1  UNL1       -0.2679
     13 O          14.3944   37.3156    8.5272 O.2     1  UNL1       -0.2747
     14 H          13.1974   39.6368   10.3779 H       1  UNL1        0.1563
     15 C          12.2162   37.3385    9.4819 C.3     1  UNL1        0.1042
     16 C          11.1352   38.2227    8.8841 C.3     1  UNL1        0.1006
     17 N          10.5768   39.0907    9.9094 N.3     1  UNL1       -0.1828
     18 H          11.1055   38.9892   10.7758 H       1  UNL1        0.1484
     19 C           9.1517   41.5725    9.6181 C.3     1  UNL1        0.1957
     20 O          11.7834   41.4296   10.0836 O.2     1  UNL1       -0.1575
     21 O          11.0057   40.7271    7.8694 O.2     1  UNL1       -0.1575
     22 S          10.6882   40.7210    9.3388 S.O2    1  UNL1        0.0426
     23 C          17.0929   44.1050    6.5286 C.3     1  UNL1        0.4186
     24 F          16.1854   45.1377    6.3848 F       1  UNL1       -0.1659
     25 F          18.2361   44.5896    7.1405 F       1  UNL1       -0.1659
     26 F          17.4337   43.6246    5.2759 F       1  UNL1       -0.1659
@<TRIPOS>BOND
     1    11    12   am
     2     1     2   ar
     3     3     4   ar
     4     3     8   ar
     5     5     6   ar
     6    23     5    1
     7    23    24    1
     8    23    25    1
     9    23    26    1
    10     7     2   ar
    11    15    11    1
    12    15    16    1
    13    16    17    1
    14    12     1    1
    15     8     9   ar
    16    22    17    1
    17    22    19    1
    18    11    13    2
    19     1     9   ar
    20     2     3   ar
    21     4     5   ar
    22     6     7   ar
    23    22    20    2
    24    22    21    2
    25    12    14    1
    26     8    10    1
    27    17    18    1
@<TRIPOS>MOLECULE
MolPort-051-503-666 CSSS09880955598 CUKKFBFHUUWVRM-UHFFFAOYSA-N MCULE-6661315209 PubChem-164697507
 26 27 0 0 0
SMALL
GASTEIGER

@<TRIPOS>ATOM
      1 C          12.6027   40.3952    7.8353 C.ar    1  UNL1        0.1550
      2 C          13.3587   41.4253    7.3414 C.ar    1  UNL1        0.0504
      3 C          14.5203   41.3697    8.0553 C.ar    1  UNL1        0.0766
      4 C          15.5605   42.2673    7.8344 C.ar    1  UNL1        0.0224
      5 C          15.3728   43.2607    6.8474 C.ar    1  UNL1        0.0729
      6 C          14.1671   43.2950    6.1005 C.ar    1  UNL1        0.0040
      7 C          13.1348   42.3709    6.3468 C.ar    1  UNL1        0.0043
      8 N          14.4800   40.3570    8.9409 N.ar    1  UNL1       -0.2745
      9 N          13.2992   39.7576    8.8052 N.ar    1  UNL1       -0.1574
     10 H          15.1923   40.1059    9.5725 H       1  UNL1        0.1890
     11 C          10.5379   38.9239    7.8833 C.2     1  UNL1        0.2287
     12 N          11.2886   40.0396    7.3940 N.am    1  UNL1       -0.2679
     13 O          11.0115   38.1594    8.7657 O.2     1  UNL1       -0.2747
     14 H          10.8707   40.6036    6.7037 H       1  UNL1        0.1563
     15 C           9.1897   38.6418    7.3147 C.3     1  UNL1        0.1042
     16 C           8.7576   39.7618    6.3838 C.3     1  UNL1        0.1006
     17 N           8.1285   39.2077    5.1949 N.3     1  UNL1       -0.1828
     18 H           7.4213   39.8533    4.8433 H       1  UNL1        0.1484
     19 C          10.6953   40.1251    4.2753 C.3     1  UNL1        0.1957
     20 O           9.8925   37.5775    4.1052 O.2     1  UNL1       -0.1575
     21 O           8.7905   39.1920    2.6288 O.2     1  UNL1       -0.1575
     22 S           9.3623   38.9792    4.0027 S.O2    1  UNL1        0.0426
     23 C          16.4801   44.2231    6.5308 C.3     1  UNL1        0.4186
     24 F          17.2525   44.4181    7.6606 F       1  UNL1       -0.1659
     25 F          17.2795   43.7233    5.5173 F       1  UNL1       -0.1659
     26 F          15.9604   45.4395    6.1228 F       1  UNL1       -0.1659
@<TRIPOS>BOND
     1    11    12   am
     2     1     2   ar
     3     3     4   ar
     4     3     8   ar
     5     5     6   ar
     6    23     5    1
     7    23    24    1
     8    23    25    1
     9    23    26    1
    10     7     2   ar
    11    15    11    1
    12    15    16    1
    13    16    17    1
    14    12     1    1
    15     8     9   ar
    16    22    17    1
    17    22    19    1
    18    11    13    2
    19     1     9   ar
    20     2     3   ar
    21     4     5   ar
    22     6     7   ar
    23    22    20    2
    24    22    21    2
    25    12    14    1
    26     8    10    1
    27    17    18    1
@<TRIPOS>MOLECULE
MolPort-051-503-666 CSSS09880955598 CUKKFBFHUUWVRM-UHFFFAOYSA-N MCULE-6661315209 PubChem-164697507
 26 27 0 0 0
SMALL
GASTEIGER

@<TRIPOS>ATOM
      1 C          12.3818   40.5646    7.7013 C.ar    1  UNL1        0.1550
      2 C          13.1540   41.5912    7.2254 C.ar    1  UNL1        0.0504
      3 C          14.3543   41.4368    7.8560 C.ar    1  UNL1        0.0766
      4 C          15.4206   42.3005    7.6248 C.ar    1  UNL1        0.0224
      5 C          15.2192   43.3650    6.7179 C.ar    1  UNL1        0.0729
      6 C          13.9719   43.5023    6.0560 C.ar    1  UNL1        0.0040
      7 C          12.9138   42.6102    6.3103 C.ar    1  UNL1        0.0043
      8 N          14.3210   40.3698    8.6758 N.ar    1  UNL1       -0.2745
      9 N          13.1065   39.8335    8.5803 N.ar    1  UNL1       -0.1574
     10 H          15.0587   40.0459    9.2416 H       1  UNL1        0.1890
     11 C           9.8767   40.7353    8.0564 C.2     1  UNL1        0.2287
     12 N          11.0269   40.2976    7.3260 N.am    1  UNL1       -0.2679
     13 O           9.9970   41.4070    9.1154 O.2     1  UNL1       -0.2747
     14 H          10.8750   39.7748    6.5057 H       1  UNL1        0.1563
     15 C           8.5170   40.3604    7.5756 C.3     1  UNL1        0.1042
     16 C           7.4478   41.0423    8.4119 C.3     1  UNL1        0.1006
     17 N           6.3669   41.5080    7.5567 N.3     1  UNL1       -0.1828
     18 H           5.4766   41.4281    8.0480 H       1  UNL1        0.1484
     19 C           7.7465   43.8903    8.3917 C.3     1  UNL1        0.1957
     20 O           7.3503   43.2385    5.8262 O.2     1  UNL1       -0.1575
     21 O           5.3848   43.9294    7.1147 O.2     1  UNL1       -0.1575
     22 S           6.6784   43.1655    7.1677 S.O2    1  UNL1        0.0426
     23 C          16.3495   44.2968    6.3910 C.3     1  UNL1        0.4186
     24 F          15.8358   45.5267    6.0248 F       1  UNL1       -0.1659
     25 F          17.1740   44.4604    7.4908 F       1  UNL1       -0.1659
     26 F          17.1041   43.7923    5.3459 F       1  UNL1       -0.1659
@<TRIPOS>BOND
     1    11    12   am
     2     1     2   ar
     3     3     4   ar
     4     3     8   ar
     5     5     6   ar
     6    23     5    1
     7    23    24    1
     8    23    25    1
     9    23    26    1
    10     7     2   ar
    11    15    11    1
    12    15    16    1
    13    16    17    1
    14    12     1    1
    15     8     9   ar
    16    22    17    1
    17    22    19    1
    18    11    13    2
    19     1     9   ar
    20     2     3   ar
    21     4     5   ar
    22     6     7   ar
    23    22    20    2
    24    22    21    2
    25    12    14    1
    26     8    10    1
    27    17    18    1
@<TRIPOS>MOLECULE
MolPort-051-503-666 CSSS09880955598 CUKKFBFHUUWVRM-UHFFFAOYSA-N MCULE-6661315209 PubChem-164697507
 26 27 0 0 0
SMALL
GASTEIGER

@<TRIPOS>ATOM
      1 C          12.3115   41.6524    7.0400 C.ar    1  UNL1        0.1550
      2 C          13.6038   41.7188    7.4895 C.ar    1  UNL1        0.0504
      3 C          14.2020   42.6367    6.6761 C.ar    1  UNL1        0.0766
      4 C          15.5402   42.9876    6.8259 C.ar    1  UNL1        0.0224
      5 C          16.2768   42.3480    7.8479 C.ar    1  UNL1        0.0729
      6 C          15.6369   41.4091    8.6976 C.ar    1  UNL1        0.0040
      7 C          14.2808   41.0777    8.5212 C.ar    1  UNL1        0.0043
      8 N          13.3220   43.1103    5.7744 N.ar    1  UNL1       -0.2745
      9 N          12.1585   42.5038    5.9988 N.ar    1  UNL1       -0.1574
     10 H          13.5051   43.7813    5.0777 H       1  UNL1        0.1890
     11 C          11.4216   39.4280    7.8712 C.2     1  UNL1        0.2287
     12 N          11.2807   40.8232    7.5859 N.am    1  UNL1       -0.2679
     13 O          12.5054   38.8258    7.6476 O.2     1  UNL1       -0.2747
     14 H          10.4115   41.2432    7.7791 H       1  UNL1        0.1563
     15 C          10.2573   38.6686    8.4080 C.3     1  UNL1        0.1042
     16 C           9.2365   38.4112    7.3128 C.3     1  UNL1        0.1006
     17 N           9.8958   38.3660    6.0168 N.3     1  UNL1       -0.1828
     18 H           9.9094   37.4078    5.6674 H       1  UNL1        0.1484
     19 C           9.2211   38.8214    3.2576 C.3     1  UNL1        0.1957
     20 O           7.5409   39.3017    5.2847 O.2     1  UNL1       -0.1575
     21 O           9.4664   40.7989    5.0574 O.2     1  UNL1       -0.1575
     22 S           8.9995   39.3753    4.9333 S.O2    1  UNL1        0.0426
     23 C          17.7096   42.7244    8.0887 C.3     1  UNL1        0.4186
     24 F          17.8007   43.4460    9.2642 F       1  UNL1       -0.1659
     25 F          18.4961   41.5901    8.1923 F       1  UNL1       -0.1659
     26 F          18.1874   43.4980    7.0449 F       1  UNL1       -0.1659
@<TRIPOS>BOND
     1    11    12   am
     2     1     2   ar
     3     3     4   ar
     4     3     8   ar
     5     5     6   ar
     6    23     5    1
     7    23    24    1
     8    23    25    1
     9    23    26    1
    10     7     2   ar
    11    15    11    1
    12    15    16    1
    13    16    17    1
    14    12     1    1
    15     8     9   ar
    16    22    17    1
    17    22    19    1
    18    11    13    2
    19     1     9   ar
    20     2     3   ar
    21     4     5   ar
    22     6     7   ar
    23    22    20    2
    24    22    21    2
    25    12    14    1
    26     8    10    1
    27    17    18    1
@<TRIPOS>MOLECULE
MolPort-051-503-666 CSSS09880955598 CUKKFBFHUUWVRM-UHFFFAOYSA-N MCULE-6661315209 PubChem-164697507
 26 27 0 0 0
SMALL
GASTEIGER

@<TRIPOS>ATOM
      1 C          14.4178   39.9763    9.1058 C.ar    1  UNL1        0.1550
      2 C          14.7962   41.0490    8.3425 C.ar    1  UNL1        0.0504
      3 C          16.0869   41.2932    8.7119 C.ar    1  UNL1        0.0766
      4 C          16.8304   42.3227    8.1427 C.ar    1  UNL1        0.0224
      5 C          16.1990   43.1286    7.1691 C.ar    1  UNL1        0.0729
      6 C          14.8625   42.8516    6.7819 C.ar    1  UNL1        0.0040
      7 C          14.1384   41.8011    7.3753 C.ar    1  UNL1        0.0043
      8 N          16.4811   40.4149    9.6526 N.ar    1  UNL1       -0.2745
      9 N          15.4531   39.6047    9.8949 N.ar    1  UNL1       -0.1574
     10 H          17.3661   40.3785   10.0822 H       1  UNL1        0.1890
     11 C          11.9449   39.8745    9.6581 C.2     1  UNL1        0.2287
     12 N          13.1363   39.3402    9.0724 N.am    1  UNL1       -0.2679
     13 O          11.9577   40.9800   10.2621 O.2     1  UNL1       -0.2747
     14 H          13.0696   38.4719    8.6132 H       1  UNL1        0.1563
     15 C          10.6777   39.0941    9.5825 C.3     1  UNL1        0.1042
     16 C          10.2937   38.8376    8.1353 C.3     1  UNL1        0.1006
     17 N           8.9693   39.3764    7.8674 N.3     1  UNL1       -0.1828
     18 H           8.8903   40.3146    8.2596 H       1  UNL1        0.1484
     19 C           9.7658   40.7309    5.4577 C.3     1  UNL1        0.1957
     20 O           9.1801   38.1212    5.5572 O.2     1  UNL1       -0.1575
     21 O           7.3171   39.6901    5.8192 O.2     1  UNL1       -0.1575
     22 S           8.7613   39.4363    6.1501 S.O2    1  UNL1        0.0426
     23 C          16.9683   44.2205    6.4846 C.3     1  UNL1        0.4186
     24 F          18.0635   44.5603    7.2566 F       1  UNL1       -0.1659
     25 F          17.4053   43.7970    5.2413 F       1  UNL1       -0.1659
     26 F          16.1707   45.3389    6.3138 F       1  UNL1       -0.1659
@<TRIPOS>BOND
     1    11    12   am
     2     1     2   ar
     3     3     4   ar
     4     3     8   ar
     5     5     6   ar
     6    23     5    1
     7    23    24    1
     8    23    25    1
     9    23    26    1
    10     7     2   ar
    11    15    11    1
    12    15    16    1
    13    16    17    1
    14    12     1    1
    15     8     9   ar
    16    22    17    1
    17    22    19    1
    18    11    13    2
    19     1     9   ar
    20     2     3   ar
    21     4     5   ar
    22     6     7   ar
    23    22    20    2
    24    22    21    2
    25    12    14    1
    26     8    10    1
    27    17    18    1
@<TRIPOS>MOLECULE
MolPort-051-503-666 CSSS09880955598 CUKKFBFHUUWVRM-UHFFFAOYSA-N MCULE-6661315209 PubChem-164697507
 26 27 0 0 0
SMALL
GASTEIGER

@<TRIPOS>ATOM
      1 C          15.0977   40.0969    9.6894 C.ar    1  UNL1        0.1550
      2 C          15.3962   41.1274    8.8377 C.ar    1  UNL1        0.0504
      3 C          16.7510   41.2635    8.9273 C.ar    1  UNL1        0.0766
      4 C          17.4421   42.2214    8.1916 C.ar    1  UNL1        0.0224
      5 C          16.6909   43.0705    7.3485 C.ar    1  UNL1        0.0729
      6 C          15.2851   42.9053    7.2516 C.ar    1  UNL1        0.0040
      7 C          14.6161   41.9251    8.0077 C.ar    1  UNL1        0.0043
      8 N          17.2583   40.3624    9.7889 N.ar    1  UNL1       -0.2745
      9 N          16.2400   39.6446   10.2578 N.ar    1  UNL1       -0.1574
     10 H          18.2071   40.2540   10.0280 H       1  UNL1        0.1890
     11 C          12.7998   39.3405    8.9290 C.2     1  UNL1        0.2287
     12 N          13.7895   39.5720    9.9364 N.am    1  UNL1       -0.2679
     13 O          13.0336   39.5975    7.7180 O.2     1  UNL1       -0.2747
     14 H          13.5531   39.3544   10.8670 H       1  UNL1        0.1563
     15 C          11.4602   38.8208    9.3235 C.3     1  UNL1        0.1042
     16 C          11.4988   37.3105    9.4826 C.3     1  UNL1        0.1006
     17 N          12.6829   36.7703    8.8327 N.3     1  UNL1       -0.1828
     18 H          13.3196   37.5280    8.5858 H       1  UNL1        0.1484
     19 C          14.5325   34.5806    9.0776 C.3     1  UNL1        0.1957
     20 O          14.2621   36.4959   10.9274 O.2     1  UNL1       -0.1575
     21 O          12.4142   34.9046   10.6956 O.2     1  UNL1       -0.1575
     22 S          13.4527   35.6940    9.9485 S.O2    1  UNL1        0.0426
     23 C          17.3884   44.0874    6.4929 C.3     1  UNL1        0.4186
     24 F          16.5249   45.1353    6.2337 F       1  UNL1       -0.1659
     25 F          18.5103   44.5754    7.1404 F       1  UNL1       -0.1659
     26 F          17.7837   43.5198    5.2938 F       1  UNL1       -0.1659
@<TRIPOS>BOND
     1    11    12   am
     2     1     2   ar
     3     3     4   ar
     4     3     8   ar
     5     5     6   ar
     6    23     5    1
     7    23    24    1
     8    23    25    1
     9    23    26    1
    10     7     2   ar
    11    15    11    1
    12    15    16    1
    13    16    17    1
    14    12     1    1
    15     8     9   ar
    16    22    17    1
    17    22    19    1
    18    11    13    2
    19     1     9   ar
    20     2     3   ar
    21     4     5   ar
    22     6     7   ar
    23    22    20    2
    24    22    21    2
    25    12    14    1
    26     8    10    1
    27    17    18    1
@<TRIPOS>MOLECULE
MolPort-051-503-666 CSSS09880955598 CUKKFBFHUUWVRM-UHFFFAOYSA-N MCULE-6661315209 PubChem-164697507
 26 27 0 0 0
SMALL
GASTEIGER

@<TRIPOS>ATOM
      1 C          11.7432   41.7758    8.6227 C.ar    1  UNL1        0.1550
      2 C          12.5327   41.0010    9.4306 C.ar    1  UNL1        0.0504
      3 C          13.7344   40.9490    8.7861 C.ar    1  UNL1        0.0766
      4 C          14.8165   40.2464    9.3075 C.ar    1  UNL1        0.0224
      5 C          14.6302   39.5669   10.5321 C.ar    1  UNL1        0.0729
      6 C          13.3809   39.6449   11.2000 C.ar    1  UNL1        0.0040
      7 C          12.3066   40.3660   10.6469 C.ar    1  UNL1        0.0043
      8 N          13.6854   41.6565    7.6421 N.ar    1  UNL1       -0.2745
      9 N          12.4593   42.1650    7.5420 N.ar    1  UNL1       -0.1574
     10 H          14.4206   41.7757    6.9983 H       1  UNL1        0.1890
     11 C           9.9616   43.2308    9.6903 C.2     1  UNL1        0.2287
     12 N          10.3801   42.1283    8.8796 N.am    1  UNL1       -0.2679
     13 O          10.8041   43.9836   10.2477 O.2     1  UNL1       -0.2747
     14 H           9.6795   41.5719    8.4687 H       1  UNL1        0.1563
     15 C           8.5069   43.4703    9.9069 C.3     1  UNL1        0.1042
     16 C           7.7393   42.1597    9.8769 C.3     1  UNL1        0.1006
     17 N           6.4182   42.3418   10.4580 N.3     1  UNL1       -0.1828
     18 H           6.4130   43.1676   11.0566 H       1  UNL1        0.1484
     19 C           3.9565   41.3870    9.3160 C.3     1  UNL1        0.1957
     20 O           4.7389   43.9441    9.2054 O.2     1  UNL1       -0.1575
     21 O           5.9899   42.3381    7.8427 O.2     1  UNL1       -0.1575
     22 S           5.2939   42.5491    9.1584 S.O2    1  UNL1        0.0426
     23 C          15.7770   38.8359   11.1671 C.3     1  UNL1        0.4186
     24 F          16.9441   39.5457   10.9555 F       1  UNL1       -0.1659
     25 F          15.5697   38.7022   12.5292 F       1  UNL1       -0.1659
     26 F          15.9092   37.5732   10.6155 F       1  UNL1       -0.1659
@<TRIPOS>BOND
     1    11    12   am
     2     1     2   ar
     3     3     4   ar
     4     3     8   ar
     5     5     6   ar
     6    23     5    1
     7    23    24    1
     8    23    25    1
     9    23    26    1
    10     7     2   ar
    11    15    11    1
    12    15    16    1
    13    16    17    1
    14    12     1    1
    15     8     9   ar
    16    22    17    1
    17    22    19    1
    18    11    13    2
    19     1     9   ar
    20     2     3   ar
    21     4     5   ar
    22     6     7   ar
    23    22    20    2
    24    22    21    2
    25    12    14    1
    26     8    10    1
    27    17    18    1
@<TRIPOS>MOLECULE
MolPort-051-503-666 CSSS09880955598 CUKKFBFHUUWVRM-UHFFFAOYSA-N MCULE-6661315209 PubChem-164697507
 26 27 0 0 0
SMALL
GASTEIGER

@<TRIPOS>ATOM
      1 C          10.3194   41.6862   10.4318 C.ar    1  UNL1        0.1550
      2 C           8.9746   41.7117   10.1717 C.ar    1  UNL1        0.0504
      3 C           8.3873   41.5287   11.3898 C.ar    1  UNL1        0.0766
      4 C           7.0042   41.4998   11.5401 C.ar    1  UNL1        0.0224
      5 C           6.2137   41.6527   10.3792 C.ar    1  UNL1        0.0729
      6 C           6.8379   41.8604    9.1222 C.ar    1  UNL1        0.0040
      7 C           8.2399   41.8867    9.0041 C.ar    1  UNL1        0.0043
      8 N           9.3232   41.3987   12.3483 N.ar    1  UNL1       -0.2745
      9 N          10.5123   41.4955   11.7580 N.ar    1  UNL1       -0.1574
     10 H           9.1587   41.2580   13.3087 H       1  UNL1        0.1890
     11 C          11.7837   40.8276    8.5479 C.2     1  UNL1        0.2287
     12 N          11.3591   41.8441    9.4612 N.am    1  UNL1       -0.2679
     13 O          11.2447   39.6888    8.5474 O.2     1  UNL1       -0.2747
     14 H          11.8155   42.7154    9.4188 H       1  UNL1        0.1563
     15 C          12.9043   41.1094    7.6071 C.3     1  UNL1        0.1042
     16 C          12.9551   42.5885    7.2644 C.3     1  UNL1        0.1006
     17 N          13.2216   42.7631    5.8450 N.3     1  UNL1       -0.1828
     18 H          12.4012   43.1560    5.3835 H       1  UNL1        0.1484
     19 C          15.9113   43.3029    6.7111 C.3     1  UNL1        0.1957
     20 O          15.0107   43.8725    4.2559 O.2     1  UNL1       -0.1575
     21 O          14.1472   45.2331    6.1009 O.2     1  UNL1       -0.1575
     22 S          14.5613   43.8479    5.6890 S.O2    1  UNL1        0.0426
     23 C           4.7170   41.6812   10.4883 C.3     1  UNL1        0.4186
     24 F           4.3564   41.6707   11.8228 F       1  UNL1       -0.1659
     25 F           4.2110   42.8233    9.8921 F       1  UNL1       -0.1659
     26 F           4.1662   40.5763    9.8622 F       1  UNL1       -0.1659
@<TRIPOS>BOND
     1    11    12   am
     2     1     2   ar
     3     3     4   ar
     4     3     8   ar
     5     5     6   ar
     6    23     5    1
     7    23    24    1
     8    23    25    1
     9    23    26    1
    10     7     2   ar
    11    15    11    1
    12    15    16    1
    13    16    17    1
    14    12     1    1
    15     8     9   ar
    16    22    17    1
    17    22    19    1
    18    11    13    2
    19     1     9   ar
    20     2     3   ar
    21     4     5   ar
    22     6     7   ar
    23    22    20    2
    24    22    21    2
    25    12    14    1
    26     8    10    1
    27    17    18    1
