@<TRIPOS>MOLECULE
MolPort-001-980-280 871420 MCULE-4930312388 PubChem-1131017 ZINC000000871420 ZINC00871420
 28 30 0 0 0
SMALL
GASTEIGER

@<TRIPOS>ATOM
      1 C           8.1255   41.3328    7.5896 C.ar    1  UNL1        0.0905
      2 C           7.5622   42.6033    7.4603 C.ar    1  UNL1        0.0847
      3 C           7.6354   43.3569    8.6471 C.ar    1  UNL1       -0.0001
      4 C           7.1203   44.7562    8.7516 C.3     1  UNL1        0.0325
      5 C           8.2841   42.6904    9.6939 C.ar    1  UNL1        0.0809
      6 S           8.7485   41.1671    9.1373 S.2     1  UNL1       -0.0673
      7 C           8.4874   43.1954   11.0719 C.2     1  UNL1        0.2548
      8 C           7.9685   43.1012   13.5269 C.3     1  UNL1        0.0937
      9 C           9.0586   42.5555   14.4457 C.3     1  UNL1        0.0216
     10 C           8.9708   41.0314   14.5125 C.3     1  UNL1        0.0035
     11 C           9.0943   40.4275   13.1144 C.3     1  UNL1        0.0216
     12 C           8.0025   40.9880   12.2073 C.3     1  UNL1        0.0937
     13 O           9.0318   44.3210   11.2365 O.2     1  UNL1       -0.2694
     14 N           8.0594   42.4476   12.2236 N.am    1  UNL1       -0.2757
     15 C           9.2981   40.3556    5.5542 C.2     1  UNL1        0.2499
     16 O           9.9403   41.4144    5.3138 O.2     1  UNL1       -0.2698
     17 N           8.2833   40.3438    6.5655 N.am    1  UNL1       -0.2749
     18 H           7.6431   39.5959    6.5558 H       1  UNL1        0.1557
     19 C          10.0509   36.8306    3.2339 C.ar    1  UNL1        0.1387
     20 C           9.5858   36.7242    4.5543 C.ar    1  UNL1        0.0370
     21 C           9.3401   37.8739    5.3095 C.ar    1  UNL1        0.0076
     22 C           9.5548   39.1440    4.7568 C.ar    1  UNL1        0.0539
     23 C          10.0200   39.2473    3.4380 C.ar    1  UNL1        0.0076
     24 C          10.2658   38.0974    2.6824 C.ar    1  UNL1        0.0370
     25 C          10.8800   34.5137    2.9833 C.3     1  UNL1        0.2525
     26 O          10.3059   35.7002    2.4525 O.3     1  UNL1       -0.4714
     27 C           7.0581   43.1410    6.2204 C.1     1  UNL1        0.1019
     28 N           6.6521   43.5740    5.2268 N.1     1  UNL1       -0.1908
@<TRIPOS>BOND
     1    25    26    1
     2    19    26    1
     3    20    21   ar
     4    22    23   ar
     5    22    15    1
     6    24    19   ar
     7    15    17   am
     8     1     6   ar
     9     2    27    1
    10     2     3   ar
    11     4     3    1
    12     5     6   ar
    13     5     7    1
    14     7    14   am
    15     8    14    1
    16     8     9    1
    17     9    10    1
    18    10    11    1
    19    11    12    1
    20    12    14    1
    21    17     1    1
    22    19    20   ar
    23    21    22   ar
    24    23    24   ar
    25    15    16    2
    26     1     2   ar
    27     3     5   ar
    28     7    13    2
    29    27    28    3
    30    17    18    1
@<TRIPOS>MOLECULE
MolPort-001-980-280 871420 MCULE-4930312388 PubChem-1131017 ZINC000000871420 ZINC00871420
 28 30 0 0 0
SMALL
GASTEIGER

@<TRIPOS>ATOM
      1 C          11.5421   41.2357    8.6243 C.ar    1  UNL1        0.0905
      2 C          12.7396   40.6703    9.0652 C.ar    1  UNL1        0.0847
      3 C          13.8669   41.1926    8.4031 C.ar    1  UNL1       -0.0001
      4 C          15.2632   40.7613    8.7172 C.3     1  UNL1        0.0325
      5 C          13.5557   42.1885    7.4692 C.ar    1  UNL1        0.0809
      6 S          11.8820   42.4003    7.4671 S.2     1  UNL1       -0.0673
      7 C          14.5087   42.9029    6.5880 C.2     1  UNL1        0.2548
      8 C          16.2580   44.6721    6.2490 C.3     1  UNL1        0.0937
      9 C          17.6937   44.1970    6.0411 C.3     1  UNL1        0.0216
     10 C          18.3739   43.9831    7.3926 C.3     1  UNL1        0.0035
     11 C          17.5902   42.9746    8.2314 C.3     1  UNL1        0.0216
     12 C          16.1565   43.4608    8.4239 C.3     1  UNL1        0.0937
     13 O          14.3833   42.7961    5.3377 O.2     1  UNL1       -0.2694
     14 N          15.5564   43.7323    7.1200 N.am    1  UNL1       -0.2757
     15 C           9.4004   41.9531    9.7951 C.2     1  UNL1        0.2499
     16 O           9.9084   43.0135   10.2521 O.2     1  UNL1       -0.2698
     17 N          10.2255   40.9881    9.1314 N.am    1  UNL1       -0.2749
     18 H           9.8582   40.0822    9.0145 H       1  UNL1        0.1557
     19 C           5.2252   41.1693   10.3699 C.ar    1  UNL1        0.1387
     20 C           5.7609   41.2428    9.0742 C.ar    1  UNL1        0.0370
     21 C           7.1221   41.4976    8.8881 C.ar    1  UNL1        0.0076
     22 C           7.9659   41.6819    9.9920 C.ar    1  UNL1        0.0539
     23 C           7.4282   41.6087   11.2849 C.ar    1  UNL1        0.0076
     24 C           6.0666   41.3538   11.4714 C.ar    1  UNL1        0.0370
     25 C           2.8552   41.8758   10.3229 C.3     1  UNL1        0.2525
     26 O           3.8684   40.9159   10.5896 O.3     1  UNL1       -0.4714
     27 C          12.8366   39.7342   10.1583 C.1     1  UNL1        0.1019
     28 N          12.9128   38.9815   11.0342 N.1     1  UNL1       -0.1908
@<TRIPOS>BOND
     1    25    26    1
     2    19    26    1
     3    20    21   ar
     4    22    23   ar
     5    22    15    1
     6    24    19   ar
     7    15    17   am
     8     1     6   ar
     9     2    27    1
    10     2     3   ar
    11     4     3    1
    12     5     6   ar
    13     5     7    1
    14     7    14   am
    15     8    14    1
    16     8     9    1
    17     9    10    1
    18    10    11    1
    19    11    12    1
    20    12    14    1
    21    17     1    1
    22    19    20   ar
    23    21    22   ar
    24    23    24   ar
    25    15    16    2
    26     1     2   ar
    27     3     5   ar
    28     7    13    2
    29    27    28    3
    30    17    18    1
@<TRIPOS>MOLECULE
MolPort-001-980-280 871420 MCULE-4930312388 PubChem-1131017 ZINC000000871420 ZINC00871420
 28 30 0 0 0
SMALL
GASTEIGER

@<TRIPOS>ATOM
      1 C           7.7382   41.6225    9.8855 C.ar    1  UNL1        0.0905
      2 C           8.9544   41.3306   10.5051 C.ar    1  UNL1        0.0847
      3 C          10.0071   41.1553    9.5871 C.ar    1  UNL1       -0.0001
      4 C          11.4097   40.8576   10.0096 C.3     1  UNL1        0.0325
      5 C           9.6234   41.3422    8.2534 C.ar    1  UNL1        0.0809
      6 S           7.9773   41.7107    8.2284 S.2     1  UNL1       -0.0673
      7 C          10.4839   41.1922    7.0566 C.2     1  UNL1        0.2548
      8 C          11.5671   39.7391    5.3187 C.3     1  UNL1        0.0937
      9 C          11.0157   39.8288    3.8982 C.3     1  UNL1        0.0216
     10 C           9.8235   38.8860    3.7401 C.3     1  UNL1        0.0035
     11 C           8.7372   39.2229    4.7606 C.3     1  UNL1        0.0216
     12 C           9.3061   39.1354    6.1740 C.3     1  UNL1        0.0937
     13 O          11.2463   42.1418    6.7289 O.2     1  UNL1       -0.2694
     14 N          10.4900   39.9852    6.2745 N.am    1  UNL1       -0.2757
     15 C           5.2116   41.4288   10.1123 C.2     1  UNL1        0.2499
     16 O           5.0653   40.9227    8.9662 O.2     1  UNL1       -0.2698
     17 N           6.4910   41.9286   10.5200 N.am    1  UNL1       -0.2749
     18 H           6.5148   42.5306   11.2986 H       1  UNL1        0.1557
     19 C           1.8424   41.7977   12.7371 C.ar    1  UNL1        0.1387
     20 C           2.1212   42.8016   11.7961 C.ar    1  UNL1        0.0370
     21 C           3.2193   42.6800   10.9405 C.ar    1  UNL1        0.0076
     22 C           4.0526   41.5552   11.0127 C.ar    1  UNL1        0.0539
     23 C           3.7722   40.5544   11.9539 C.ar    1  UNL1        0.0076
     24 C           2.6739   40.6758   12.8098 C.ar    1  UNL1        0.0370
     25 C           0.8276   42.5427   14.8662 C.3     1  UNL1        0.2525
     26 O           0.7521   41.8895   13.6065 O.3     1  UNL1       -0.4714
     27 C           9.1504   41.3183   11.9340 C.1     1  UNL1        0.1019
     28 N           9.3096   41.3068   13.0804 N.1     1  UNL1       -0.1908
@<TRIPOS>BOND
     1    25    26    1
     2    19    26    1
     3    20    21   ar
     4    22    23   ar
     5    22    15    1
     6    24    19   ar
     7    15    17   am
     8     1     6   ar
     9     2    27    1
    10     2     3   ar
    11     4     3    1
    12     5     6   ar
    13     5     7    1
    14     7    14   am
    15     8    14    1
    16     8     9    1
    17     9    10    1
    18    10    11    1
    19    11    12    1
    20    12    14    1
    21    17     1    1
    22    19    20   ar
    23    21    22   ar
    24    23    24   ar
    25    15    16    2
    26     1     2   ar
    27     3     5   ar
    28     7    13    2
    29    27    28    3
    30    17    18    1
@<TRIPOS>MOLECULE
MolPort-001-980-280 871420 MCULE-4930312388 PubChem-1131017 ZINC000000871420 ZINC00871420
 28 30 0 0 0
SMALL
GASTEIGER

@<TRIPOS>ATOM
      1 C          11.2838   38.9424    8.8596 C.ar    1  UNL1        0.0905
      2 C          12.5028   38.3655    8.4998 C.ar    1  UNL1        0.0847
      3 C          12.5953   38.0995    7.1204 C.ar    1  UNL1       -0.0001
      4 C          13.8127   37.5039    6.4898 C.3     1  UNL1        0.0325
      5 C          11.4645   38.4976    6.3968 C.ar    1  UNL1        0.0809
      6 S          10.3567   39.1641    7.4805 S.2     1  UNL1       -0.0673
      7 C          11.2383   38.3220    4.9431 C.2     1  UNL1        0.2548
      8 C           9.7588   37.6341    3.0345 C.3     1  UNL1        0.0937
      9 C           9.2011   38.7485    2.1528 C.3     1  UNL1        0.0216
     10 C           7.9155   39.3041    2.7640 C.3     1  UNL1        0.0035
     11 C           8.1756   39.8178    4.1794 C.3     1  UNL1        0.0216
     12 C           8.7388   38.6944    5.0453 C.3     1  UNL1        0.0937
     13 O          12.2313   38.3209    4.1656 O.2     1  UNL1       -0.2694
     14 N           9.9209   38.1293    4.3993 N.am    1  UNL1       -0.2757
     15 C          10.8140   40.7758   10.5598 C.2     1  UNL1        0.2499
     16 O          11.3907   41.6678    9.8795 O.2     1  UNL1       -0.2698
     17 N          10.8898   39.4027   10.1576 N.am    1  UNL1       -0.2749
     18 H          10.6520   38.7210   10.8270 H       1  UNL1        0.1557
     19 C           8.7584   41.8414   14.1676 C.ar    1  UNL1        0.1387
     20 C           8.0488   41.6904   12.9656 C.ar    1  UNL1        0.0370
     21 C           8.7198   41.3423   11.7904 C.ar    1  UNL1        0.0076
     22 C          10.1068   41.1401   11.7997 C.ar    1  UNL1        0.0539
     23 C          10.8131   41.2923   13.0014 C.ar    1  UNL1        0.0076
     24 C          10.1422   41.6405   14.1771 C.ar    1  UNL1        0.0370
     25 C           7.6255   41.2210   16.2770 C.3     1  UNL1        0.2525
     26 O           8.1168   42.1885   15.3597 O.3     1  UNL1       -0.4714
     27 C          13.6010   38.1623    9.4125 C.1     1  UNL1        0.1019
     28 N          14.4809   38.0002   10.1467 N.1     1  UNL1       -0.1908
@<TRIPOS>BOND
     1    25    26    1
     2    19    26    1
     3    20    21   ar
     4    22    23   ar
     5    22    15    1
     6    24    19   ar
     7    15    17   am
     8     1     6   ar
     9     2    27    1
    10     2     3   ar
    11     4     3    1
    12     5     6   ar
    13     5     7    1
    14     7    14   am
    15     8    14    1
    16     8     9    1
    17     9    10    1
    18    10    11    1
    19    11    12    1
    20    12    14    1
    21    17     1    1
    22    19    20   ar
    23    21    22   ar
    24    23    24   ar
    25    15    16    2
    26     1     2   ar
    27     3     5   ar
    28     7    13    2
    29    27    28    3
    30    17    18    1
@<TRIPOS>MOLECULE
MolPort-001-980-280 871420 MCULE-4930312388 PubChem-1131017 ZINC000000871420 ZINC00871420
 28 30 0 0 0
SMALL
GASTEIGER

@<TRIPOS>ATOM
      1 C           8.6468   39.6930    5.2208 C.ar    1  UNL1        0.0905
      2 C           9.7227   39.2629    4.4424 C.ar    1  UNL1        0.0847
      3 C           9.3173   38.6209    3.2570 C.ar    1  UNL1       -0.0001
      4 C          10.2866   38.0928    2.2491 C.3     1  UNL1        0.0325
      5 C           7.9274   38.5776    3.0913 C.ar    1  UNL1        0.0809
      6 S           7.2170   39.3263    4.4258 S.2     1  UNL1       -0.0673
      7 C           7.1897   37.9414    1.9750 C.2     1  UNL1        0.2548
      8 C           5.3439   36.4521    1.1503 C.3     1  UNL1        0.0937
      9 C           4.1633   37.1290    0.4589 C.3     1  UNL1        0.0216
     10 C           3.1401   37.5841    1.4987 C.3     1  UNL1        0.0035
     11 C           3.7883   38.5321    2.5066 C.3     1  UNL1        0.0216
     12 C           4.9700   37.8431    3.1833 C.3     1  UNL1        0.0937
     13 O           7.7242   37.9006    0.8335 O.2     1  UNL1       -0.2694
     14 N           5.8928   37.3491    2.1643 N.am    1  UNL1       -0.2757
     15 C           8.8851   41.8570    6.5371 C.2     1  UNL1        0.2499
     16 O           9.3215   42.5067    5.5478 O.2     1  UNL1       -0.2698
     17 N           8.7014   40.4393    6.4422 N.am    1  UNL1       -0.2749
     18 H           8.6049   39.9379    7.2839 H       1  UNL1        0.1557
     19 C           8.0945   43.8693   10.2388 C.ar    1  UNL1        0.1387
     20 C           8.9914   42.7900   10.1961 C.ar    1  UNL1        0.0370
     21 C           9.2489   42.1353    8.9888 C.ar    1  UNL1        0.0076
     22 C           8.6153   42.5493    7.8091 C.ar    1  UNL1        0.0539
     23 C           7.7195   43.6271    7.8547 C.ar    1  UNL1        0.0076
     24 C           7.4617   44.2821    9.0622 C.ar    1  UNL1        0.0370
     25 C           8.2882   44.0993   12.6939 C.3     1  UNL1        0.2525
     26 O           7.8158   44.5449   11.4301 O.3     1  UNL1       -0.4714
     27 C          11.1043   39.5393    4.7509 C.1     1  UNL1        0.1019
     28 N          12.2130   39.7590    5.0000 N.1     1  UNL1       -0.1908
@<TRIPOS>BOND
     1    25    26    1
     2    19    26    1
     3    20    21   ar
     4    22    23   ar
     5    22    15    1
     6    24    19   ar
     7    15    17   am
     8     1     6   ar
     9     2    27    1
    10     2     3   ar
    11     4     3    1
    12     5     6   ar
    13     5     7    1
    14     7    14   am
    15     8    14    1
    16     8     9    1
    17     9    10    1
    18    10    11    1
    19    11    12    1
    20    12    14    1
    21    17     1    1
    22    19    20   ar
    23    21    22   ar
    24    23    24   ar
    25    15    16    2
    26     1     2   ar
    27     3     5   ar
    28     7    13    2
    29    27    28    3
    30    17    18    1
@<TRIPOS>MOLECULE
MolPort-001-980-280 871420 MCULE-4930312388 PubChem-1131017 ZINC000000871420 ZINC00871420
 28 30 0 0 0
SMALL
GASTEIGER

@<TRIPOS>ATOM
      1 C          10.3033   40.3268    9.9172 C.ar    1  UNL1        0.0905
      2 C          10.6589   39.2355    9.1230 C.ar    1  UNL1        0.0847
      3 C          11.9403   38.7358    9.4232 C.ar    1  UNL1       -0.0001
      4 C          12.5346   37.5563    8.7233 C.3     1  UNL1        0.0325
      5 C          12.5733   39.4132   10.4726 C.ar    1  UNL1        0.0809
      6 S          11.5392   40.6340   11.0076 S.2     1  UNL1       -0.0673
      7 C          13.9343   39.1547   10.9981 C.2     1  UNL1        0.2548
      8 C          16.3522   38.6003   10.6095 C.3     1  UNL1        0.0937
      9 C          17.3659   39.7179   10.8408 C.3     1  UNL1        0.0216
     10 C          17.5038   40.5675    9.5782 C.3     1  UNL1        0.0035
     11 C          16.1489   41.1461    9.1730 C.3     1  UNL1        0.0216
     12 C          15.1461   40.0171    8.9524 C.3     1  UNL1        0.0937
     13 O          14.0766   38.8890   12.2227 O.2     1  UNL1       -0.2694
     14 N          15.0922   39.1754   10.1452 N.am    1  UNL1       -0.2757
     15 C           8.8295   42.3281    9.3737 C.2     1  UNL1        0.2499
     16 O           9.8073   43.0811    9.1129 O.2     1  UNL1       -0.2698
     17 N           9.0524   41.0247    9.9253 N.am    1  UNL1       -0.2749
     18 H           8.2843   40.5726   10.3434 H       1  UNL1        0.1557
     19 C           4.8262   43.7333    8.7609 C.ar    1  UNL1        0.1387
     20 C           5.9160   44.4480    8.2387 C.ar    1  UNL1        0.0370
     21 C           7.2205   43.9886    8.4385 C.ar    1  UNL1        0.0076
     22 C           7.4540   42.8105    9.1612 C.ar    1  UNL1        0.0539
     23 C           6.3637   42.0991    9.6822 C.ar    1  UNL1        0.0076
     24 C           5.0588   42.5584    9.4825 C.ar    1  UNL1        0.0370
     25 C           3.1607   45.1986    7.6667 C.3     1  UNL1        0.2525
     26 O           3.5099   44.1661    8.5784 O.3     1  UNL1       -0.4714
     27 C           9.7755   38.6065    8.1720 C.1     1  UNL1        0.1019
     28 N           9.0647   38.1018    7.4107 N.1     1  UNL1       -0.1908
@<TRIPOS>BOND
     1    25    26    1
     2    19    26    1
     3    20    21   ar
     4    22    23   ar
     5    22    15    1
     6    24    19   ar
     7    15    17   am
     8     1     6   ar
     9     2    27    1
    10     2     3   ar
    11     4     3    1
    12     5     6   ar
    13     5     7    1
    14     7    14   am
    15     8    14    1
    16     8     9    1
    17     9    10    1
    18    10    11    1
    19    11    12    1
    20    12    14    1
    21    17     1    1
    22    19    20   ar
    23    21    22   ar
    24    23    24   ar
    25    15    16    2
    26     1     2   ar
    27     3     5   ar
    28     7    13    2
    29    27    28    3
    30    17    18    1
@<TRIPOS>MOLECULE
MolPort-001-980-280 871420 MCULE-4930312388 PubChem-1131017 ZINC000000871420 ZINC00871420
 28 30 0 0 0
SMALL
GASTEIGER

@<TRIPOS>ATOM
      1 C           9.7157   41.1803    9.1756 C.ar    1  UNL1        0.0905
      2 C          10.1047   41.3914    7.8519 C.ar    1  UNL1        0.0847
      3 C          11.4738   41.1430    7.6384 C.ar    1  UNL1       -0.0001
      4 C          12.1227   41.2776    6.2986 C.3     1  UNL1        0.0325
      5 C          12.1486   40.7064    8.7852 C.ar    1  UNL1        0.0809
      6 S          11.0394   40.6460   10.0548 S.2     1  UNL1       -0.0673
      7 C          13.5939   40.4001    8.8975 C.2     1  UNL1        0.2548
      8 C          15.4884   39.2140   10.0416 C.3     1  UNL1        0.0937
      9 C          16.1411   38.0594    9.2859 C.3     1  UNL1        0.0216
     10 C          15.3664   36.7665    9.5370 C.3     1  UNL1        0.0035
     11 C          13.9066   36.9279    9.1152 C.3     1  UNL1        0.0216
     12 C          13.2713   38.0895    9.8742 C.3     1  UNL1        0.0937
     13 O          14.4240   41.1431    8.3067 O.2     1  UNL1       -0.2694
     14 N          14.0751   39.2938    9.6806 N.am    1  UNL1       -0.2757
     15 C           7.6025   42.4632    9.7766 C.2     1  UNL1        0.2499
     16 O           8.1475   43.5914    9.6302 O.2     1  UNL1       -0.2698
     17 N           8.3926   41.2696    9.7174 N.am    1  UNL1       -0.2749
     18 H           7.9944   40.4446   10.0779 H       1  UNL1        0.1557
     19 C           3.4059   42.2126   10.6146 C.ar    1  UNL1        0.1387
     20 C           3.8724   43.0216    9.5663 C.ar    1  UNL1        0.0370
     21 C           5.2405   43.1020    9.2936 C.ar    1  UNL1        0.0076
     22 C           6.1601   42.3761   10.0629 C.ar    1  UNL1        0.0539
     23 C           5.6916   41.5694   11.1097 C.ar    1  UNL1        0.0076
     24 C           4.3232   41.4888   11.3827 C.ar    1  UNL1        0.0370
     25 C           1.5363   42.2324   12.2340 C.3     1  UNL1        0.2525
     26 O           2.0442   42.1106   10.9125 O.3     1  UNL1       -0.4714
     27 C           9.1919   41.7189    6.7842 C.1     1  UNL1        0.1019
     28 N           8.4584   41.9794    5.9276 N.1     1  UNL1       -0.1908
@<TRIPOS>BOND
     1    25    26    1
     2    19    26    1
     3    20    21   ar
     4    22    23   ar
     5    22    15    1
     6    24    19   ar
     7    15    17   am
     8     1     6   ar
     9     2    27    1
    10     2     3   ar
    11     4     3    1
    12     5     6   ar
    13     5     7    1
    14     7    14   am
    15     8    14    1
    16     8     9    1
    17     9    10    1
    18    10    11    1
    19    11    12    1
    20    12    14    1
    21    17     1    1
    22    19    20   ar
    23    21    22   ar
    24    23    24   ar
    25    15    16    2
    26     1     2   ar
    27     3     5   ar
    28     7    13    2
    29    27    28    3
    30    17    18    1
@<TRIPOS>MOLECULE
MolPort-001-980-280 871420 MCULE-4930312388 PubChem-1131017 ZINC000000871420 ZINC00871420
 28 30 0 0 0
SMALL
GASTEIGER

@<TRIPOS>ATOM
      1 C          15.5217   39.9899    9.4999 C.ar    1  UNL1        0.0905
      2 C          16.9126   39.8734    9.5083 C.ar    1  UNL1        0.0847
      3 C          17.5552   40.9540    8.8748 C.ar    1  UNL1       -0.0001
      4 C          19.0424   41.0676    8.7762 C.3     1  UNL1        0.0325
      5 C          16.6709   41.9308    8.4007 C.ar    1  UNL1        0.0809
      6 S          15.0995   41.4351    8.7624 S.2     1  UNL1       -0.0673
      7 C          17.0293   43.1627    7.6597 C.2     1  UNL1        0.2548
      8 C          16.9941   44.5270    5.5520 C.3     1  UNL1        0.0937
      9 C          16.1007   45.7647    5.5419 C.3     1  UNL1        0.0216
     10 C          14.6761   45.3774    5.1474 C.3     1  UNL1        0.0035
     11 C          14.1240   44.3239    6.1066 C.3     1  UNL1        0.0216
     12 C          15.0315   43.0969    6.1100 C.3     1  UNL1        0.0937
     13 O          17.9247   43.9182    8.1264 O.2     1  UNL1       -0.2694
     14 N          16.4007   43.5064    6.4125 N.am    1  UNL1       -0.2757
     15 C          13.3834   38.6114    9.4919 C.2     1  UNL1        0.2499
     16 O          12.9340   39.1639    8.4508 O.2     1  UNL1       -0.2698
     17 N          14.5724   39.1115   10.1156 N.am    1  UNL1       -0.2749
     18 H          14.7512   38.8287   11.0415 H       1  UNL1        0.1557
     19 C          11.2634   35.3323   11.2611 C.ar    1  UNL1        0.1387
     20 C          10.5628   36.3642   10.6166 C.ar    1  UNL1        0.0370
     21 C          11.2550   37.4322   10.0396 C.ar    1  UNL1        0.0076
     22 C          12.6544   37.4839   10.0980 C.ar    1  UNL1        0.0539
     23 C          13.3516   36.4523   10.7429 C.ar    1  UNL1        0.0076
     24 C          12.6595   35.3839   11.3202 C.ar    1  UNL1        0.0370
     25 C          10.4527   34.1121   13.2541 C.3     1  UNL1        0.2525
     26 O          10.6007   34.2506   11.8477 O.3     1  UNL1       -0.4714
     27 C          17.6312   38.8231   10.1872 C.1     1  UNL1        0.1019
     28 N          18.2092   37.9820   10.7331 N.1     1  UNL1       -0.1908
@<TRIPOS>BOND
     1    25    26    1
     2    19    26    1
     3    20    21   ar
     4    22    23   ar
     5    22    15    1
     6    24    19   ar
     7    15    17   am
     8     1     6   ar
     9     2    27    1
    10     2     3   ar
    11     4     3    1
    12     5     6   ar
    13     5     7    1
    14     7    14   am
    15     8    14    1
    16     8     9    1
    17     9    10    1
    18    10    11    1
    19    11    12    1
    20    12    14    1
    21    17     1    1
    22    19    20   ar
    23    21    22   ar
    24    23    24   ar
    25    15    16    2
    26     1     2   ar
    27     3     5   ar
    28     7    13    2
    29    27    28    3
    30    17    18    1
@<TRIPOS>MOLECULE
MolPort-001-980-280 871420 MCULE-4930312388 PubChem-1131017 ZINC000000871420 ZINC00871420
 28 30 0 0 0
SMALL
GASTEIGER

@<TRIPOS>ATOM
      1 C           8.2685   41.7495    8.6672 C.ar    1  UNL1        0.0905
      2 C           8.5202   42.0147    7.3202 C.ar    1  UNL1        0.0847
      3 C           9.7883   41.5680    6.9030 C.ar    1  UNL1       -0.0001
      4 C          10.2786   41.7174    5.4989 C.3     1  UNL1        0.0325
      5 C          10.5149   40.9246    7.9125 C.ar    1  UNL1        0.0809
      6 S           9.5789   40.9292    9.3161 S.2     1  UNL1       -0.0673
      7 C          11.8879   40.3788    7.8026 C.2     1  UNL1        0.2548
      8 C          14.3004   40.3899    8.4987 C.3     1  UNL1        0.0937
      9 C          14.7836   39.2145    9.3443 C.3     1  UNL1        0.0216
     10 C          14.5025   39.4837   10.8220 C.3     1  UNL1        0.0035
     11 C          13.0111   39.7296   11.0458 C.3     1  UNL1        0.0216
     12 C          12.5429   40.9023   10.1888 C.3     1  UNL1        0.0937
     13 O          12.1861   39.6709    6.8025 O.2     1  UNL1       -0.2694
     14 N          12.8941   40.6544    8.7927 N.am    1  UNL1       -0.2757
     15 C           5.8262   41.2937    9.2151 C.2     1  UNL1        0.2499
     16 O           5.6396   40.5951    8.1815 O.2     1  UNL1       -0.2698
     17 N           7.0588   42.0024    9.3915 N.am    1  UNL1       -0.2749
     18 H           7.0757   42.7208   10.0645 H       1  UNL1        0.1557
     19 C           2.7016   41.6721   12.1255 C.ar    1  UNL1        0.1387
     20 C           3.6259   40.6188   12.2107 C.ar    1  UNL1        0.0370
     21 C           4.6445   40.4969   11.2619 C.ar    1  UNL1        0.0076
     22 C           4.7538   41.4242   10.2166 C.ar    1  UNL1        0.0539
     23 C           3.8289   42.4748   10.1335 C.ar    1  UNL1        0.0076
     24 C           2.8100   42.5970   11.0825 C.ar    1  UNL1        0.0370
     25 C           0.8214   42.9598   13.0873 C.3     1  UNL1        0.2525
     26 O           1.6719   41.8218   13.0586 O.3     1  UNL1       -0.4714
     27 C           7.5520   42.5823    6.4141 C.1     1  UNL1        0.1019
     28 N           6.7747   43.0355    5.6861 N.1     1  UNL1       -0.1908
@<TRIPOS>BOND
     1    25    26    1
     2    19    26    1
     3    20    21   ar
     4    22    23   ar
     5    22    15    1
     6    24    19   ar
     7    15    17   am
     8     1     6   ar
     9     2    27    1
    10     2     3   ar
    11     4     3    1
    12     5     6   ar
    13     5     7    1
    14     7    14   am
    15     8    14    1
    16     8     9    1
    17     9    10    1
    18    10    11    1
    19    11    12    1
    20    12    14    1
    21    17     1    1
    22    19    20   ar
    23    21    22   ar
    24    23    24   ar
    25    15    16    2
    26     1     2   ar
    27     3     5   ar
    28     7    13    2
    29    27    28    3
    30    17    18    1
@<TRIPOS>MOLECULE
MolPort-001-980-280 871420 MCULE-4930312388 PubChem-1131017 ZINC000000871420 ZINC00871420
 28 30 0 0 0
SMALL
GASTEIGER

@<TRIPOS>ATOM
      1 C           2.6165   37.3872    8.3940 C.ar    1  UNL1        0.0905
      2 C           1.9684   37.0228    9.5753 C.ar    1  UNL1        0.0847
      3 C           2.1532   37.9584   10.6109 C.ar    1  UNL1       -0.0001
      4 C           1.5387   37.8010   11.9644 C.3     1  UNL1        0.0325
      5 C           2.9167   39.0693   10.2316 C.ar    1  UNL1        0.0809
      6 S           3.3646   38.8709    8.6173 S.2     1  UNL1       -0.0673
      7 C           3.3184   40.2028   11.0970 C.2     1  UNL1        0.2548
      8 C           3.0219   42.5779   11.8558 C.3     1  UNL1        0.0937
      9 C           2.4338   42.7929   13.2479 C.3     1  UNL1        0.0216
     10 C           0.9074   42.7732   13.1789 C.3     1  UNL1        0.0035
     11 C           0.4166   41.4531   12.5860 C.3     1  UNL1        0.0216
     12 C           1.0186   41.2504   11.1984 C.3     1  UNL1        0.0937
     13 O           4.4409   40.1662   11.6705 O.2     1  UNL1       -0.2694
     14 N           2.4735   41.3522   11.2805 N.am    1  UNL1       -0.2757
     15 C           3.4034   35.5933    6.7706 C.2     1  UNL1        0.2499
     16 O           4.4449   35.3346    7.4335 O.2     1  UNL1       -0.2698
     17 N           2.5766   36.7052    7.1350 N.am    1  UNL1       -0.2749
     18 H           1.9292   37.0263    6.4664 H       1  UNL1        0.1557
     19 C           2.4187   33.2326    3.3306 C.ar    1  UNL1        0.1387
     20 C           1.7461   34.4398    3.5780 C.ar    1  UNL1        0.0370
     21 C           2.0684   35.2089    4.6992 C.ar    1  UNL1        0.0076
     22 C           3.0659   34.7835    5.5873 C.ar    1  UNL1        0.0539
     23 C           3.7356   33.5770    5.3382 C.ar    1  UNL1        0.0076
     24 C           3.4134   32.8075    4.2167 C.ar    1  UNL1        0.0370
     25 C           3.1229   31.8194    1.4266 C.3     1  UNL1        0.2525
     26 O           2.1199   32.4408    2.2183 O.3     1  UNL1       -0.4714
     27 C           1.1067   35.8731    9.7023 C.1     1  UNL1        0.1019
     28 N           0.4149   34.9505    9.8018 N.1     1  UNL1       -0.1908
@<TRIPOS>BOND
     1    25    26    1
     2    19    26    1
     3    20    21   ar
     4    22    23   ar
     5    22    15    1
     6    24    19   ar
     7    15    17   am
     8     1     6   ar
     9     2    27    1
    10     2     3   ar
    11     4     3    1
    12     5     6   ar
    13     5     7    1
    14     7    14   am
    15     8    14    1
    16     8     9    1
    17     9    10    1
    18    10    11    1
    19    11    12    1
    20    12    14    1
    21    17     1    1
    22    19    20   ar
    23    21    22   ar
    24    23    24   ar
    25    15    16    2
    26     1     2   ar
    27     3     5   ar
    28     7    13    2
    29    27    28    3
    30    17    18    1
