@<TRIPOS>MOLECULE
MolPort-020-292-530 MCULE-2658701292 PubChem-110264998
 33 37 0 0 0
SMALL
GASTEIGER

@<TRIPOS>ATOM
      1 C          11.1075   39.3305    8.7487 C.3     1  UNL1        0.0602
      2 C           9.6976   38.7505    8.6186 C.3     1  UNL1        0.0094
      3 C           8.8386   39.6383    7.7192 C.3     1  UNL1        0.0220
      4 C           9.4945   39.7866    6.3488 C.3     1  UNL1        0.0938
      5 C          11.7476   39.4896    7.3713 C.3     1  UNL1        0.0996
      6 C          11.2843   41.4820    5.8557 C.2     1  UNL1        0.2683
      7 N          10.8618   40.2729    6.5147 N.am    1  UNL1       -0.2744
      8 O          10.5278   42.0094    4.9949 O.2     1  UNL1       -0.2682
      9 C          12.5728   42.1434    6.1579 C.ar    1  UNL1        0.1537
     10 C          13.5153   41.6540    7.0589 C.ar    1  UNL1        0.1053
     11 C          15.6992   42.5047    7.7146 C.ar    1  UNL1        0.0928
     12 C          16.6125   43.5451    7.4916 C.ar    1  UNL1        0.0753
     13 C          16.2956   44.5621    6.5708 C.ar    1  UNL1        0.0160
     14 C          15.0751   44.5400    5.8765 C.ar    1  UNL1        0.0383
     15 C          14.2093   43.4811    6.1403 C.ar    1  UNL1        0.1480
     16 N          14.5333   42.5246    7.0233 N.ar    1  UNL1       -0.2865
     17 N          13.0057   43.2893    5.5747 N.ar    1  UNL1       -0.2218
     18 CL         18.1357   43.5791    8.3526 Cl      1  UNL1       -0.0807
     19 C          11.9749   34.9794   10.9300 C.3     1  UNL1        0.0521
     20 C          12.3846   36.3839   10.6705 C.ar    1  UNL1        0.0602
     21 C          13.5606   36.8824   11.2339 C.ar    1  UNL1        0.0294
     22 C          13.9413   38.2072   10.9832 C.ar    1  UNL1        0.0517
     23 C          13.1316   39.0050   10.1712 C.ar    1  UNL1        0.0294
     24 C          11.9595   38.4749    9.6259 C.ar    1  UNL1        0.0611
     25 N          11.6153   37.1819    9.8834 N.ar    1  UNL1       -0.2538
     26 N          15.1393   38.7743   11.5314 N.pl3   1  UNL1       -0.2979
     27 H          15.0202   39.4200   12.2649 H       1  UNL1        0.1536
     28 C          16.4907   38.5081   11.1329 C.ar    1  UNL1        0.1322
     29 C          17.2252   39.5215   10.5111 C.ar    1  UNL1        0.0344
     30 C          18.5423   39.2742   10.1196 C.ar    1  UNL1        0.0045
     31 C          19.1129   38.0218   10.3512 C.ar    1  UNL1        0.0208
     32 C          18.3510   37.0319   10.9747 C.ar    1  UNL1        0.1003
     33 N          17.0693   37.2928   11.3488 N.ar    1  UNL1       -0.2291
@<TRIPOS>BOND
     1    19    20    1
     2    20    25   ar
     3    21    22   ar
     4    22    26    1
     5    23    24   ar
     6     1    24    1
     7     1     2    1
     8     2     3    1
     9     3     4    1
    10     4     7    1
    11     5     7    1
    12     5     1    1
    13     6     9    1
    14     9    17   ar
    15    10    16   ar
    16    12    13   ar
    17    12    18    1
    18    14    15   ar
    19    15    16   ar
    20    28    33   ar
    21    29    30   ar
    22    31    32   ar
    23     7     6   am
    24    16    11   ar
    25    26    28    1
    26    20    21   ar
    27    22    23   ar
    28    24    25   ar
    29     6     8    2
    30     9    10   ar
    31    11    12   ar
    32    13    14   ar
    33    15    17   ar
    34    28    29   ar
    35    30    31   ar
    36    32    33   ar
    37    26    27    1
@<TRIPOS>MOLECULE
MolPort-020-292-530 MCULE-2658701292 PubChem-110264998
 33 37 0 0 0
SMALL
GASTEIGER

@<TRIPOS>ATOM
      1 C          13.0272   38.9963    9.3112 C.3     1  UNL1        0.0602
      2 C          12.8928   39.8421   10.5791 C.3     1  UNL1        0.0094
      3 C          13.7010   39.2236   11.7188 C.3     1  UNL1        0.0220
      4 C          15.1650   39.0867   11.3089 C.3     1  UNL1        0.0938
      5 C          14.4963   38.8524    8.9197 C.3     1  UNL1        0.0996
      6 C          16.0478   37.1390    9.9867 C.2     1  UNL1        0.2683
      7 N          15.2512   38.3369   10.0583 N.am    1  UNL1       -0.2744
      8 O          16.8105   36.8496   10.9490 O.2     1  UNL1       -0.2682
      9 C          15.9989   36.2199    8.8283 C.ar    1  UNL1        0.1537
     10 C          15.8418   34.8395    8.9262 C.ar    1  UNL1        0.1053
     11 C          15.6955   33.1171    7.2129 C.ar    1  UNL1        0.0928
     12 C          15.7073   32.9083    5.8264 C.ar    1  UNL1        0.0753
     13 C          15.8519   34.0084    4.9594 C.ar    1  UNL1        0.0160
     14 C          15.9828   35.3087    5.4736 C.ar    1  UNL1        0.0383
     15 C          15.9637   35.4526    6.8591 C.ar    1  UNL1        0.1480
     16 N          15.8261   34.3887    7.6644 N.ar    1  UNL1       -0.2865
     17 N          16.0719   36.6110    7.5313 N.ar    1  UNL1       -0.2218
     18 CL         15.5440   31.2910    5.1783 Cl      1  UNL1       -0.0807
     19 C           9.1060   38.8555    6.3034 C.3     1  UNL1        0.0521
     20 C          10.3555   39.5276    6.7448 C.ar    1  UNL1        0.0602
     21 C          10.7730   40.7036    6.1190 C.ar    1  UNL1        0.0294
     22 C          11.9512   41.3326    6.5419 C.ar    1  UNL1        0.0517
     23 C          12.6870   40.7664    7.5858 C.ar    1  UNL1        0.0294
     24 C          12.2418   39.5868    8.1879 C.ar    1  UNL1        0.0611
     25 N          11.0903   38.9983    7.7588 N.ar    1  UNL1       -0.2538
     26 N          12.4289   42.5437    5.9398 N.pl3   1  UNL1       -0.2979
     27 H          11.8208   42.9832    5.3024 H       1  UNL1        0.1536
     28 C          13.6911   43.1872    6.1604 C.ar    1  UNL1        0.1322
     29 C          14.6648   42.5270    6.9149 C.ar    1  UNL1        0.0344
     30 C          15.8979   43.1433    7.1355 C.ar    1  UNL1        0.0045
     31 C          16.1477   44.4089    6.6030 C.ar    1  UNL1        0.0208
     32 C          15.1529   45.0403    5.8541 C.ar    1  UNL1        0.1003
     33 N          13.9579   44.4228    5.6503 N.ar    1  UNL1       -0.2291
@<TRIPOS>BOND
     1    19    20    1
     2    20    25   ar
     3    21    22   ar
     4    22    26    1
     5    23    24   ar
     6     1    24    1
     7     1     2    1
     8     2     3    1
     9     3     4    1
    10     4     7    1
    11     5     7    1
    12     5     1    1
    13     6     9    1
    14     9    17   ar
    15    10    16   ar
    16    12    13   ar
    17    12    18    1
    18    14    15   ar
    19    15    16   ar
    20    28    33   ar
    21    29    30   ar
    22    31    32   ar
    23     7     6   am
    24    16    11   ar
    25    26    28    1
    26    20    21   ar
    27    22    23   ar
    28    24    25   ar
    29     6     8    2
    30     9    10   ar
    31    11    12   ar
    32    13    14   ar
    33    15    17   ar
    34    28    29   ar
    35    30    31   ar
    36    32    33   ar
    37    26    27    1
@<TRIPOS>MOLECULE
MolPort-020-292-530 MCULE-2658701292 PubChem-110264998
 33 37 0 0 0
SMALL
GASTEIGER

@<TRIPOS>ATOM
      1 C          11.6374   39.1070    8.7585 C.3     1  UNL1        0.0602
      2 C          10.2677   38.4251    8.7459 C.3     1  UNL1        0.0094
      3 C           9.2470   39.2962    8.0151 C.3     1  UNL1        0.0220
      4 C           9.7248   39.5833    6.5941 C.3     1  UNL1        0.0938
      5 C          12.0980   39.4039    7.3330 C.3     1  UNL1        0.0996
      6 C          11.3168   41.4447    6.0268 C.2     1  UNL1        0.2683
      7 N          11.0633   40.1663    6.6401 N.am    1  UNL1       -0.2744
      8 O          10.4281   41.9632    5.2967 O.2     1  UNL1       -0.2682
      9 C          12.5805   42.1870    6.2294 C.ar    1  UNL1        0.1537
     10 C          13.6273   41.7507    7.0378 C.ar    1  UNL1        0.1053
     11 C          15.7995   42.7373    7.5192 C.ar    1  UNL1        0.0928
     12 C          16.6200   43.8389    7.2374 C.ar    1  UNL1        0.0753
     13 C          16.1588   44.8435    6.3651 C.ar    1  UNL1        0.0160
     14 C          14.8870   44.7483    5.7774 C.ar    1  UNL1        0.0383
     15 C          14.1183   43.6309    6.0956 C.ar    1  UNL1        0.1480
     16 N          14.5793   42.6876    6.9306 N.ar    1  UNL1       -0.2865
     17 N          12.8854   43.3661    5.6316 N.ar    1  UNL1       -0.2218
     18 CL         18.2065   43.9641    7.9654 Cl      1  UNL1       -0.0807
     19 C          15.1722   38.6677   12.1869 C.3     1  UNL1        0.0521
     20 C          14.3406   38.0505   11.1215 C.ar    1  UNL1        0.0602
     21 C          14.4994   36.6995   10.8078 C.ar    1  UNL1        0.0294
     22 C          13.7103   36.1242    9.8033 C.ar    1  UNL1        0.0517
     23 C          12.7771   36.9191    9.1332 C.ar    1  UNL1        0.0294
     24 C          12.6462   38.2687    9.4703 C.ar    1  UNL1        0.0611
     25 N          13.4243   38.8011   10.4540 N.ar    1  UNL1       -0.2538
     26 N          13.8260   34.7417    9.4389 N.pl3   1  UNL1       -0.2979
     27 H          13.1008   34.1488    9.7418 H       1  UNL1        0.1536
     28 C          14.8773   34.1248    8.6840 C.ar    1  UNL1        0.1322
     29 C          15.9232   34.9190    8.2058 C.ar    1  UNL1        0.0344
     30 C          16.9529   34.3293    7.4704 C.ar    1  UNL1        0.0045
     31 C          16.9300   32.9566    7.2193 C.ar    1  UNL1        0.0208
     32 C          15.8702   32.1926    7.7115 C.ar    1  UNL1        0.1003
     33 N          14.8764   32.7862    8.4263 N.ar    1  UNL1       -0.2291
@<TRIPOS>BOND
     1    19    20    1
     2    20    25   ar
     3    21    22   ar
     4    22    26    1
     5    23    24   ar
     6     1    24    1
     7     1     2    1
     8     2     3    1
     9     3     4    1
    10     4     7    1
    11     5     7    1
    12     5     1    1
    13     6     9    1
    14     9    17   ar
    15    10    16   ar
    16    12    13   ar
    17    12    18    1
    18    14    15   ar
    19    15    16   ar
    20    28    33   ar
    21    29    30   ar
    22    31    32   ar
    23     7     6   am
    24    16    11   ar
    25    26    28    1
    26    20    21   ar
    27    22    23   ar
    28    24    25   ar
    29     6     8    2
    30     9    10   ar
    31    11    12   ar
    32    13    14   ar
    33    15    17   ar
    34    28    29   ar
    35    30    31   ar
    36    32    33   ar
    37    26    27    1
@<TRIPOS>MOLECULE
MolPort-020-292-530 MCULE-2658701292 PubChem-110264998
 33 37 0 0 0
SMALL
GASTEIGER

@<TRIPOS>ATOM
      1 C          14.6693   33.6259    5.1957 C.3     1  UNL1        0.0602
      2 C          15.0272   32.1388    5.2364 C.3     1  UNL1        0.0094
      3 C          13.8000   31.2877    4.9132 C.3     1  UNL1        0.0220
      4 C          13.2387   31.6749    3.5475 C.3     1  UNL1        0.0938
      5 C          14.0938   33.9984    3.8309 C.3     1  UNL1        0.0996
      6 C          11.6586   33.6002    3.2043 C.2     1  UNL1        0.2683
      7 N          12.9764   33.1115    3.5196 N.am    1  UNL1       -0.2744
      8 O          10.7901   32.7924    2.7746 O.2     1  UNL1       -0.2682
      9 C          11.2743   35.0184    3.3770 C.ar    1  UNL1        0.1537
     10 C          12.1220   36.0082    3.8684 C.ar    1  UNL1        0.1053
     11 C          11.7702   38.3907    4.2201 C.ar    1  UNL1        0.0928
     12 C          10.8233   39.4170    4.0927 C.ar    1  UNL1        0.0753
     13 C           9.5428   39.1218    3.5870 C.ar    1  UNL1        0.0160
     14 C           9.2102   37.8106    3.2100 C.ar    1  UNL1        0.0383
     15 C          10.1926   36.8343    3.3595 C.ar    1  UNL1        0.1480
     16 N          11.4051   37.1401    3.8451 N.ar    1  UNL1       -0.2865
     17 N          10.0618   35.5329    3.0518 N.ar    1  UNL1       -0.2218
     18 CL         11.2306   41.0536    4.5599 Cl      1  UNL1       -0.0807
     19 C          18.8096   35.8925    3.7253 C.3     1  UNL1        0.0521
     20 C          17.8446   35.5685    4.8076 C.ar    1  UNL1        0.0602
     21 C          18.0494   36.0653    6.0960 C.ar    1  UNL1        0.0294
     22 C          17.1341   35.7570    7.1109 C.ar    1  UNL1        0.0517
     23 C          16.0308   34.9545    6.8104 C.ar    1  UNL1        0.0294
     24 C          15.8579   34.4715    5.5107 C.ar    1  UNL1        0.0611
     25 N          16.7619   34.7901    4.5423 N.ar    1  UNL1       -0.2538
     26 N          17.2896   36.2405    8.4524 N.pl3   1  UNL1       -0.2979
     27 H          18.2077   36.2537    8.8075 H       1  UNL1        0.1536
     28 C          16.2603   36.7066    9.3352 C.ar    1  UNL1        0.1322
     29 C          14.9435   36.7617    8.8702 C.ar    1  UNL1        0.0344
     30 C          13.9328   37.2130    9.7211 C.ar    1  UNL1        0.0045
     31 C          14.2440   37.6041   11.0241 C.ar    1  UNL1        0.0208
     32 C          15.5699   37.5365   11.4563 C.ar    1  UNL1        0.1003
     33 N          16.5403   37.0937   10.6119 N.ar    1  UNL1       -0.2291
@<TRIPOS>BOND
     1    19    20    1
     2    20    25   ar
     3    21    22   ar
     4    22    26    1
     5    23    24   ar
     6     1    24    1
     7     1     2    1
     8     2     3    1
     9     3     4    1
    10     4     7    1
    11     5     7    1
    12     5     1    1
    13     6     9    1
    14     9    17   ar
    15    10    16   ar
    16    12    13   ar
    17    12    18    1
    18    14    15   ar
    19    15    16   ar
    20    28    33   ar
    21    29    30   ar
    22    31    32   ar
    23     7     6   am
    24    16    11   ar
    25    26    28    1
    26    20    21   ar
    27    22    23   ar
    28    24    25   ar
    29     6     8    2
    30     9    10   ar
    31    11    12   ar
    32    13    14   ar
    33    15    17   ar
    34    28    29   ar
    35    30    31   ar
    36    32    33   ar
    37    26    27    1
@<TRIPOS>MOLECULE
MolPort-020-292-530 MCULE-2658701292 PubChem-110264998
 33 37 0 0 0
SMALL
GASTEIGER

@<TRIPOS>ATOM
      1 C          14.6410   37.0420    9.7313 C.3     1  UNL1        0.0602
      2 C          13.8223   35.9936   10.4874 C.3     1  UNL1        0.0094
      3 C          12.4765   36.5771   10.9151 C.3     1  UNL1        0.0220
      4 C          11.7142   37.0859    9.6943 C.3     1  UNL1        0.0938
      5 C          13.8624   37.5555    8.5219 C.3     1  UNL1        0.0996
      6 C          12.0788   39.3639    8.6948 C.2     1  UNL1        0.2683
      7 N          12.5514   38.0287    8.9570 N.am    1  UNL1       -0.2744
      8 O          10.8750   39.6493    8.9416 O.2     1  UNL1       -0.2682
      9 C          12.9563   40.4263    8.1563 C.ar    1  UNL1        0.1537
     10 C          14.2383   40.7004    8.6265 C.ar    1  UNL1        0.1053
     11 C          15.8901   42.3405    7.9157 C.ar    1  UNL1        0.0928
     12 C          16.1250   43.3714    6.9948 C.ar    1  UNL1        0.0753
     13 C          15.1267   43.7096    6.0610 C.ar    1  UNL1        0.0160
     14 C          13.9022   43.0222    6.0464 C.ar    1  UNL1        0.0383
     15 C          13.7278   42.0080    6.9854 C.ar    1  UNL1        0.1480
     16 N          14.6935   41.7052    7.8658 N.ar    1  UNL1       -0.2865
     17 N          12.6320   41.2424    7.1222 N.ar    1  UNL1       -0.2218
     18 CL         17.6486   44.2321    7.0065 Cl      1  UNL1       -0.0807
     19 C          19.3200   35.8580   10.8018 C.3     1  UNL1        0.0521
     20 C          18.2072   35.9102    9.8187 C.ar    1  UNL1        0.0602
     21 C          18.3999   35.4314    8.5216 C.ar    1  UNL1        0.0294
     22 C          17.3453   35.4822    7.6007 C.ar    1  UNL1        0.0517
     23 C          16.1175   36.0143    8.0021 C.ar    1  UNL1        0.0294
     24 C          15.9601   36.4876    9.3073 C.ar    1  UNL1        0.0611
     25 N          17.0017   36.4224   10.1832 N.ar    1  UNL1       -0.2538
     26 N          17.4820   35.0031    6.2557 N.pl3   1  UNL1       -0.2979
     27 H          17.5346   34.0264    6.1439 H       1  UNL1        0.1536
     28 C          17.5508   35.7843    5.0554 C.ar    1  UNL1        0.1322
     29 C          16.4978   35.7118    4.1392 C.ar    1  UNL1        0.0344
     30 C          16.5533   36.4687    2.9675 C.ar    1  UNL1        0.0045
     31 C          17.6554   37.2886    2.7210 C.ar    1  UNL1        0.0208
     32 C          18.6899   37.3375    3.6572 C.ar    1  UNL1        0.1003
     33 N          18.6169   36.5923    4.7931 N.ar    1  UNL1       -0.2291
@<TRIPOS>BOND
     1    19    20    1
     2    20    25   ar
     3    21    22   ar
     4    22    26    1
     5    23    24   ar
     6     1    24    1
     7     1     2    1
     8     2     3    1
     9     3     4    1
    10     4     7    1
    11     5     7    1
    12     5     1    1
    13     6     9    1
    14     9    17   ar
    15    10    16   ar
    16    12    13   ar
    17    12    18    1
    18    14    15   ar
    19    15    16   ar
    20    28    33   ar
    21    29    30   ar
    22    31    32   ar
    23     7     6   am
    24    16    11   ar
    25    26    28    1
    26    20    21   ar
    27    22    23   ar
    28    24    25   ar
    29     6     8    2
    30     9    10   ar
    31    11    12   ar
    32    13    14   ar
    33    15    17   ar
    34    28    29   ar
    35    30    31   ar
    36    32    33   ar
    37    26    27    1
@<TRIPOS>MOLECULE
MolPort-020-292-530 MCULE-2658701292 PubChem-110264998
 33 37 0 0 0
SMALL
GASTEIGER

@<TRIPOS>ATOM
      1 C           9.5618   41.1770    8.3939 C.3     1  UNL1        0.0602
      2 C           8.2326   40.5304    7.9988 C.3     1  UNL1        0.0094
      3 C           8.0391   40.5957    6.4845 C.3     1  UNL1        0.0220
      4 C           9.2073   39.9138    5.7771 C.3     1  UNL1        0.0938
      5 C          10.7214   40.4979    7.6682 C.3     1  UNL1        0.0996
      6 C          11.3809   41.0744    5.2778 C.2     1  UNL1        0.2683
      7 N          10.4628   40.5062    6.2312 N.am    1  UNL1       -0.2744
      8 O          11.1797   40.8907    4.0460 O.2     1  UNL1       -0.2682
      9 C          12.5519   41.8815    5.6855 C.ar    1  UNL1        0.1537
     10 C          13.4734   41.4953    6.6557 C.ar    1  UNL1        0.1053
     11 C          15.4798   42.5928    7.4883 C.ar    1  UNL1        0.0928
     12 C          16.2746   43.7391    7.3449 C.ar    1  UNL1        0.0753
     13 C          15.9097   44.7248    6.4080 C.ar    1  UNL1        0.0160
     14 C          14.7590   44.5665    5.6186 C.ar    1  UNL1        0.0383
     15 C          14.0102   43.4069    5.8063 C.ar    1  UNL1        0.1480
     16 N          14.3778   42.4827    6.7065 N.ar    1  UNL1       -0.2865
     17 N          12.8867   43.0803    5.1455 N.ar    1  UNL1       -0.2218
     18 CL         17.7103   43.9430    8.3246 Cl      1  UNL1       -0.0807
     19 C           7.9192   42.0802   12.9686 C.3     1  UNL1        0.0521
     20 C           8.9776   41.5478   12.0720 C.ar    1  UNL1        0.0602
     21 C          10.1378   40.9934   12.6154 C.ar    1  UNL1        0.0294
     22 C          11.1306   40.4918   11.7636 C.ar    1  UNL1        0.0517
     23 C          10.9374   40.5581   10.3816 C.ar    1  UNL1        0.0294
     24 C           9.7655   41.1224    9.8713 C.ar    1  UNL1        0.0611
     25 N           8.8150   41.5993   10.7231 N.ar    1  UNL1       -0.2538
     26 N          12.3419   39.9081   12.2629 N.pl3   1  UNL1       -0.2979
     27 H          12.3742   39.7312   13.2309 H       1  UNL1        0.1536
     28 C          13.5113   39.5528   11.5131 C.ar    1  UNL1        0.1322
     29 C          13.6871   40.0938   10.2365 C.ar    1  UNL1        0.0344
     30 C          14.8223   39.7559    9.4975 C.ar    1  UNL1        0.0045
     31 C          15.7689   38.8838   10.0370 C.ar    1  UNL1        0.0208
     32 C          15.5622   38.3614   11.3151 C.ar    1  UNL1        0.1003
     33 N          14.4495   38.7033   12.0193 N.ar    1  UNL1       -0.2291
@<TRIPOS>BOND
     1    19    20    1
     2    20    25   ar
     3    21    22   ar
     4    22    26    1
     5    23    24   ar
     6     1    24    1
     7     1     2    1
     8     2     3    1
     9     3     4    1
    10     4     7    1
    11     5     7    1
    12     5     1    1
    13     6     9    1
    14     9    17   ar
    15    10    16   ar
    16    12    13   ar
    17    12    18    1
    18    14    15   ar
    19    15    16   ar
    20    28    33   ar
    21    29    30   ar
    22    31    32   ar
    23     7     6   am
    24    16    11   ar
    25    26    28    1
    26    20    21   ar
    27    22    23   ar
    28    24    25   ar
    29     6     8    2
    30     9    10   ar
    31    11    12   ar
    32    13    14   ar
    33    15    17   ar
    34    28    29   ar
    35    30    31   ar
    36    32    33   ar
    37    26    27    1
@<TRIPOS>MOLECULE
MolPort-020-292-530 MCULE-2658701292 PubChem-110264998
 33 37 0 0 0
SMALL
GASTEIGER

@<TRIPOS>ATOM
      1 C          12.9137   37.9113    8.2518 C.3     1  UNL1        0.0602
      2 C          12.0684   37.6923    9.5083 C.3     1  UNL1        0.0094
      3 C          12.3079   36.2928   10.0727 C.3     1  UNL1        0.0220
      4 C          13.7913   36.0959   10.3740 C.3     1  UNL1        0.0938
      5 C          14.3937   37.6961    8.5610 C.3     1  UNL1        0.0996
      6 C          15.4664   35.3885    8.6377 C.2     1  UNL1        0.2683
      7 N          14.5730   36.3830    9.1739 N.am    1  UNL1       -0.2744
      8 O          15.7051   34.3492    9.3118 O.2     1  UNL1       -0.2682
      9 C          16.1108   35.5301    7.3134 C.ar    1  UNL1        0.1537
     10 C          15.4676   35.3067    6.0984 C.ar    1  UNL1        0.1053
     11 C          16.2620   35.4948    3.8056 C.ar    1  UNL1        0.0928
     12 C          17.3830   35.8196    3.0285 C.ar    1  UNL1        0.0753
     13 C          18.5813   36.2001    3.6627 C.ar    1  UNL1        0.0160
     14 C          18.6593   36.2569    5.0637 C.ar    1  UNL1        0.0383
     15 C          17.5129   35.9231    5.7813 C.ar    1  UNL1        0.1480
     16 N          16.3833   35.5623    5.1542 N.ar    1  UNL1       -0.2865
     17 N          17.3952   35.9216    7.1198 N.ar    1  UNL1       -0.2218
     18 CL         17.2932   35.7519    1.2821 Cl      1  UNL1       -0.0807
     19 C          10.3226   40.9593    5.3470 C.3     1  UNL1        0.0521
     20 C          11.4439   40.7449    6.2980 C.ar    1  UNL1        0.0602
     21 C          12.2632   41.8148    6.6625 C.ar    1  UNL1        0.0294
     22 C          13.3173   41.6053    7.5612 C.ar    1  UNL1        0.0517
     23 C          13.5273   40.3235    8.0755 C.ar    1  UNL1        0.0294
     24 C          12.6901   39.2745    7.6871 C.ar    1  UNL1        0.0611
     25 N          11.6702   39.5076    6.8141 N.ar    1  UNL1       -0.2538
     26 N          14.1903   42.6655    7.9751 N.pl3   1  UNL1       -0.2979
     27 H          13.8701   43.2302    8.7152 H       1  UNL1        0.1536
     28 C          15.4761   42.9966    7.4339 C.ar    1  UNL1        0.1322
     29 C          16.6218   42.4854    8.0497 C.ar    1  UNL1        0.0344
     30 C          17.8791   42.8002    7.5310 C.ar    1  UNL1        0.0045
     31 C          17.9818   43.6198    6.4061 C.ar    1  UNL1        0.0208
     32 C          16.8170   44.1136    5.8155 C.ar    1  UNL1        0.1003
     33 N          15.6011   43.7950    6.3360 N.ar    1  UNL1       -0.2291
@<TRIPOS>BOND
     1    19    20    1
     2    20    25   ar
     3    21    22   ar
     4    22    26    1
     5    23    24   ar
     6     1    24    1
     7     1     2    1
     8     2     3    1
     9     3     4    1
    10     4     7    1
    11     5     7    1
    12     5     1    1
    13     6     9    1
    14     9    17   ar
    15    10    16   ar
    16    12    13   ar
    17    12    18    1
    18    14    15   ar
    19    15    16   ar
    20    28    33   ar
    21    29    30   ar
    22    31    32   ar
    23     7     6   am
    24    16    11   ar
    25    26    28    1
    26    20    21   ar
    27    22    23   ar
    28    24    25   ar
    29     6     8    2
    30     9    10   ar
    31    11    12   ar
    32    13    14   ar
    33    15    17   ar
    34    28    29   ar
    35    30    31   ar
    36    32    33   ar
    37    26    27    1
@<TRIPOS>MOLECULE
MolPort-020-292-530 MCULE-2658701292 PubChem-110264998
 33 37 0 0 0
SMALL
GASTEIGER

@<TRIPOS>ATOM
      1 C          11.3689   38.8663    8.5687 C.3     1  UNL1        0.0602
      2 C           9.8820   38.5978    8.3277 C.3     1  UNL1        0.0094
      3 C           9.2102   39.8306    7.7248 C.3     1  UNL1        0.0220
      4 C           9.9090   40.2261    6.4266 C.3     1  UNL1        0.0938
      5 C          12.0542   39.2766    7.2670 C.3     1  UNL1        0.0996
      6 C          11.9779   41.6528    6.3564 C.2     1  UNL1        0.2683
      7 N          11.3368   40.4037    6.6781 N.am    1  UNL1       -0.2744
      8 O          11.3429   42.5161    5.6908 O.2     1  UNL1       -0.2682
      9 C          13.3562   41.9733    6.7884 C.ar    1  UNL1        0.1537
     10 C          14.1234   43.0103    6.2634 C.ar    1  UNL1        0.1053
     11 C          16.3709   43.7732    6.8017 C.ar    1  UNL1        0.0928
     12 C          17.4713   43.5262    7.6350 C.ar    1  UNL1        0.0753
     13 C          17.4139   42.4729    8.5677 C.ar    1  UNL1        0.0160
     14 C          16.2648   41.6719    8.6682 C.ar    1  UNL1        0.0383
     15 C          15.2044   41.9660    7.8141 C.ar    1  UNL1        0.1480
     16 N          15.2836   42.9743    6.9328 N.ar    1  UNL1       -0.2865
     17 N          14.0292   41.3163    7.7661 N.ar    1  UNL1       -0.2218
     18 CL         18.9065   44.5205    7.5159 Cl      1  UNL1       -0.0807
     19 C          11.2705   34.9955   11.6427 C.3     1  UNL1        0.0521
     20 C          11.9950   35.8055   10.6295 C.ar    1  UNL1        0.0602
     21 C          13.2813   35.4365   10.2318 C.ar    1  UNL1        0.0294
     22 C          13.9574   36.2042    9.2746 C.ar    1  UNL1        0.0517
     23 C          13.3269   37.3286    8.7362 C.ar    1  UNL1        0.0294
     24 C          12.0400   37.6711    9.1591 C.ar    1  UNL1        0.0611
     25 N          11.4044   36.9043   10.0889 N.ar    1  UNL1       -0.2538
     26 N          15.2785   35.8733    8.8246 N.pl3   1  UNL1       -0.2979
     27 H          15.8368   36.6252    8.5208 H       1  UNL1        0.1536
     28 C          15.8789   34.5725    8.7666 C.ar    1  UNL1        0.1322
     29 C          15.0916   33.4797    8.3933 C.ar    1  UNL1        0.0344
     30 C          15.6654   32.2085    8.3325 C.ar    1  UNL1        0.0045
     31 C          17.0153   32.0394    8.6437 C.ar    1  UNL1        0.0208
     32 C          17.7730   33.1525    9.0129 C.ar    1  UNL1        0.1003
     33 N          17.1952   34.3830    9.0660 N.ar    1  UNL1       -0.2291
@<TRIPOS>BOND
     1    19    20    1
     2    20    25   ar
     3    21    22   ar
     4    22    26    1
     5    23    24   ar
     6     1    24    1
     7     1     2    1
     8     2     3    1
     9     3     4    1
    10     4     7    1
    11     5     7    1
    12     5     1    1
    13     6     9    1
    14     9    17   ar
    15    10    16   ar
    16    12    13   ar
    17    12    18    1
    18    14    15   ar
    19    15    16   ar
    20    28    33   ar
    21    29    30   ar
    22    31    32   ar
    23     7     6   am
    24    16    11   ar
    25    26    28    1
    26    20    21   ar
    27    22    23   ar
    28    24    25   ar
    29     6     8    2
    30     9    10   ar
    31    11    12   ar
    32    13    14   ar
    33    15    17   ar
    34    28    29   ar
    35    30    31   ar
    36    32    33   ar
    37    26    27    1
@<TRIPOS>MOLECULE
MolPort-020-292-530 MCULE-2658701292 PubChem-110264998
 33 37 0 0 0
SMALL
GASTEIGER

@<TRIPOS>ATOM
      1 C          12.3712   38.7759    9.7910 C.3     1  UNL1        0.0602
      2 C          12.0888   37.4349   10.4715 C.3     1  UNL1        0.0094
      3 C          13.3808   36.6333   10.6230 C.3     1  UNL1        0.0220
      4 C          14.4078   37.4391   11.4142 C.3     1  UNL1        0.0938
      5 C          13.4115   39.5663   10.5820 C.3     1  UNL1        0.0996
      6 C          15.9147   39.1564   10.3647 C.2     1  UNL1        0.2683
      7 N          14.5992   38.7400   10.7780 N.am    1  UNL1       -0.2744
      8 O          16.9152   38.4759   10.7217 O.2     1  UNL1       -0.2682
      9 C          16.1421   40.3507    9.5217 C.ar    1  UNL1        0.1537
     10 C          15.1622   40.9611    8.7426 C.ar    1  UNL1        0.1053
     11 C          15.2477   42.9253    7.3080 C.ar    1  UNL1        0.0928
     12 C          16.0974   43.9372    6.8387 C.ar    1  UNL1        0.0753
     13 C          17.4399   43.9689    7.2622 C.ar    1  UNL1        0.0160
     14 C          17.9305   42.9970    8.1493 C.ar    1  UNL1        0.0383
     15 C          17.0388   42.0175    8.5806 C.ar    1  UNL1        0.1480
     16 N          15.7644   42.0077    8.1617 N.ar    1  UNL1       -0.2865
     17 N          17.3224   41.0130    9.4268 N.ar    1  UNL1       -0.2218
     18 CL         15.4929   45.1521    5.7336 Cl      1  UNL1       -0.0807
     19 C           9.0213   41.8851   11.6759 C.3     1  UNL1        0.0521
     20 C           9.5094   41.0708   10.5330 C.ar    1  UNL1        0.0602
     21 C           8.8047   41.0676    9.3280 C.ar    1  UNL1        0.0294
     22 C           9.2721   40.2987    8.2542 C.ar    1  UNL1        0.0517
     23 C          10.4391   39.5474    8.4134 C.ar    1  UNL1        0.0294
     24 C          11.1181   39.5711    9.6343 C.ar    1  UNL1        0.0611
     25 N          10.6428   40.3308   10.6607 N.ar    1  UNL1       -0.2538
     26 N           8.5930   40.2577    6.9914 N.pl3   1  UNL1       -0.2979
     27 H           7.6340   40.4797    7.0046 H       1  UNL1        0.1536
     28 C           9.1517   39.9303    5.7121 C.ar    1  UNL1        0.1322
     29 C          10.3411   40.5473    5.3149 C.ar    1  UNL1        0.0344
     30 C          10.8949   40.2357    4.0719 C.ar    1  UNL1        0.0045
     31 C          10.2590   39.3141    3.2387 C.ar    1  UNL1        0.0208
     32 C           9.0721   38.7163    3.6664 C.ar    1  UNL1        0.1003
     33 N           8.5486   39.0332    4.8815 N.ar    1  UNL1       -0.2291
@<TRIPOS>BOND
     1    19    20    1
     2    20    25   ar
     3    21    22   ar
     4    22    26    1
     5    23    24   ar
     6     1    24    1
     7     1     2    1
     8     2     3    1
     9     3     4    1
    10     4     7    1
    11     5     7    1
    12     5     1    1
    13     6     9    1
    14     9    17   ar
    15    10    16   ar
    16    12    13   ar
    17    12    18    1
    18    14    15   ar
    19    15    16   ar
    20    28    33   ar
    21    29    30   ar
    22    31    32   ar
    23     7     6   am
    24    16    11   ar
    25    26    28    1
    26    20    21   ar
    27    22    23   ar
    28    24    25   ar
    29     6     8    2
    30     9    10   ar
    31    11    12   ar
    32    13    14   ar
    33    15    17   ar
    34    28    29   ar
    35    30    31   ar
    36    32    33   ar
    37    26    27    1
@<TRIPOS>MOLECULE
MolPort-020-292-530 MCULE-2658701292 PubChem-110264998
 33 37 0 0 0
SMALL
GASTEIGER

@<TRIPOS>ATOM
      1 C          11.9454   38.5067    8.9784 C.3     1  UNL1        0.0602
      2 C          11.5760   37.1683    9.6211 C.3     1  UNL1        0.0094
      3 C          12.8365   36.4184   10.0496 C.3     1  UNL1        0.0220
      4 C          13.6550   37.2761   11.0112 C.3     1  UNL1        0.0938
      5 C          12.7775   39.3494    9.9428 C.3     1  UNL1        0.0996
      6 C          15.2852   39.0298   10.2444 C.2     1  UNL1        0.2683
      7 N          13.9278   38.5717   10.3945 N.am    1  UNL1       -0.2744
      8 O          16.2149   38.3937   10.8124 O.2     1  UNL1       -0.2682
      9 C          15.6386   40.2168    9.4350 C.ar    1  UNL1        0.1537
     10 C          14.7418   40.9141    8.6292 C.ar    1  UNL1        0.1053
     11 C          15.0376   42.8894    7.2385 C.ar    1  UNL1        0.0928
     12 C          15.9813   43.8401    6.8240 C.ar    1  UNL1        0.0753
     13 C          17.3034   43.7607    7.3020 C.ar    1  UNL1        0.0160
     14 C          17.6805   42.7391    8.1887 C.ar    1  UNL1        0.0383
     15 C          16.6990   41.8246    8.5642 C.ar    1  UNL1        0.1480
     16 N          15.4463   41.9205    8.0941 N.ar    1  UNL1       -0.2865
     17 N          16.8691   40.7872    9.4010 N.ar    1  UNL1       -0.2218
     18 CL         15.5186   45.1164    5.7197 Cl      1  UNL1       -0.0807
     19 C           8.5999   39.5957    5.5052 C.3     1  UNL1        0.0521
     20 C           9.1099   39.7727    6.8895 C.ar    1  UNL1        0.0602
     21 C           8.4396   40.6167    7.7768 C.ar    1  UNL1        0.0294
     22 C           8.9255   40.7771    9.0810 C.ar    1  UNL1        0.0517
     23 C          10.0764   40.0859    9.4674 C.ar    1  UNL1        0.0294
     24 C          10.7242   39.2515    8.5529 C.ar    1  UNL1        0.0611
     25 N          10.2276   39.1114    7.2918 N.ar    1  UNL1       -0.2538
     26 N           8.2785   41.6276   10.0378 N.pl3   1  UNL1       -0.2979
     27 H           8.8647   42.0750   10.6901 H       1  UNL1        0.1536
     28 C           6.8756   41.9005   10.1526 C.ar    1  UNL1        0.1322
     29 C           6.1608   41.3364   11.2129 C.ar    1  UNL1        0.0344
     30 C           4.7946   41.5958   11.3354 C.ar    1  UNL1        0.0045
     31 C           4.1556   42.4132   10.4020 C.ar    1  UNL1        0.0208
     32 C           4.8995   42.9605    9.3550 C.ar    1  UNL1        0.1003
     33 N           6.2301   42.6958    9.2532 N.ar    1  UNL1       -0.2291
@<TRIPOS>BOND
     1    19    20    1
     2    20    25   ar
     3    21    22   ar
     4    22    26    1
     5    23    24   ar
     6     1    24    1
     7     1     2    1
     8     2     3    1
     9     3     4    1
    10     4     7    1
    11     5     7    1
    12     5     1    1
    13     6     9    1
    14     9    17   ar
    15    10    16   ar
    16    12    13   ar
    17    12    18    1
    18    14    15   ar
    19    15    16   ar
    20    28    33   ar
    21    29    30   ar
    22    31    32   ar
    23     7     6   am
    24    16    11   ar
    25    26    28    1
    26    20    21   ar
    27    22    23   ar
    28    24    25   ar
    29     6     8    2
    30     9    10   ar
    31    11    12   ar
    32    13    14   ar
    33    15    17   ar
    34    28    29   ar
    35    30    31   ar
    36    32    33   ar
    37    26    27    1
