@<TRIPOS>MOLECULE
MolPort-000-013-327 976380 CSSS03436552884 MCULE-2119931216 PubChem-1206670 ZINC000000976380 ZINC00976380
 36 39 0 0 0
SMALL
GASTEIGER

@<TRIPOS>ATOM
      1 C          14.9260   42.5818    7.5223 C.ar    1  UNL1        0.1975
      2 C          12.8100   42.5629    7.6277 C.ar    1  UNL1        0.1706
      3 N          13.9056   41.9453    8.1262 N.ar    1  UNL1       -0.2690
      4 N          14.4865   43.5433    6.6898 N.ar    1  UNL1       -0.1218
      5 N          13.1630   43.5333    6.7569 N.ar    1  UNL1       -0.1279
      6 C          14.1778   38.7579   10.9045 C.ar    1  UNL1        0.1388
      7 C          13.0238   39.5480   10.8494 C.ar    1  UNL1        0.0384
      8 C          12.9344   40.6034    9.9354 C.ar    1  UNL1        0.0207
      9 C          14.0021   40.8766    9.0722 C.ar    1  UNL1        0.0674
     10 C          15.1551   40.0849    9.1174 C.ar    1  UNL1        0.0207
     11 C          15.2447   39.0314   10.0306 C.ar    1  UNL1        0.0384
     12 C          13.6684   36.4355   11.5790 C.3     1  UNL1        0.2525
     13 O          14.2392   37.7121   11.8297 O.3     1  UNL1       -0.4714
     14 C          11.3991   42.2673    7.9697 C.ar    1  UNL1        0.0364
     15 C          10.8012   42.9247    9.0550 C.ar    1  UNL1        0.0043
     16 C           9.4671   42.6762    9.3883 C.ar    1  UNL1        0.0148
     17 C           8.7088   41.7645    8.6400 C.ar    1  UNL1        0.0505
     18 C           9.3005   41.1120    7.5545 C.ar    1  UNL1        0.0148
     19 C          10.6350   41.3594    7.2237 C.ar    1  UNL1        0.0043
     20 C           6.6910   41.6200   10.2119 C.2     1  UNL1        0.2495
     21 O           7.3803   41.7541   11.2617 O.2     1  UNL1       -0.2698
     22 N           7.3286   41.5110    8.9302 N.am    1  UNL1       -0.2804
     23 H           6.7607   41.2344    8.1751 H       1  UNL1        0.1552
     24 C           5.2215   41.5619   10.3033 C.ar    1  UNL1        0.0537
     25 C           4.4506   41.2292    9.1777 C.ar    1  UNL1        0.0045
     26 C           3.0570   41.1628    9.2711 C.ar    1  UNL1        0.0001
     27 C           2.4243   41.4271   10.4903 C.ar    1  UNL1        0.0000
     28 C           3.1842   41.7586   11.6159 C.ar    1  UNL1        0.0001
     29 C           4.5777   41.8257   11.5227 C.ar    1  UNL1        0.0045
     30 S          16.6611   42.2104    7.7795 S.3     1  UNL1       -0.0655
     31 C          17.1589   43.9566    7.6279 C.3     1  UNL1        0.1496
     32 C          17.1110   44.4634    6.2202 C.2     1  UNL1        0.2308
     33 O          16.5341   45.5474    5.9337 O.2     1  UNL1       -0.2744
     34 N          17.7316   43.7055    5.1891 N.am    1  UNL1       -0.3281
     35 H          18.1839   42.8582    5.4051 H       1  UNL1        0.1450
     36 H          17.7088   44.0282    4.2592 H       1  UNL1        0.1450
@<TRIPOS>BOND
     1    12    13    1
     2     6    13    1
     3     7     8   ar
     4     9    10   ar
     5     9     3    1
     6    11     6   ar
     7     1    30    1
     8    31    30    1
     9    31    32    1
    10    32    34   am
    11     2    14    1
    12     2     3   ar
    13    15    16   ar
    14    17    22    1
    15    17    18   ar
    16    20    24    1
    17    25    26   ar
    18    27    28   ar
    19    29    24   ar
    20    19    14   ar
    21     3     1   ar
    22     4     5   ar
    23    22    20   am
    24     6     7   ar
    25     8     9   ar
    26    10    11   ar
    27     1     4   ar
    28    32    33    2
    29     2     5   ar
    30    14    15   ar
    31    16    17   ar
    32    20    21    2
    33    24    25   ar
    34    26    27   ar
    35    28    29   ar
    36    18    19   ar
    37    34    35    1
    38    34    36    1
    39    22    23    1
@<TRIPOS>MOLECULE
MolPort-000-013-327 976380 CSSS03436552884 MCULE-2119931216 PubChem-1206670 ZINC000000976380 ZINC00976380
 36 39 0 0 0
SMALL
GASTEIGER

@<TRIPOS>ATOM
      1 C           6.1188   41.3780    8.0014 C.ar    1  UNL1        0.1975
      2 C           8.1303   41.6368    7.3884 C.ar    1  UNL1        0.1706
      3 N           7.3657   41.4918    8.4949 N.ar    1  UNL1       -0.2690
      4 N           6.1096   41.4512    6.6578 N.ar    1  UNL1       -0.1218
      5 N           7.3678   41.6111    6.2736 N.ar    1  UNL1       -0.1279
      6 C           8.4857   41.3511   12.5788 C.ar    1  UNL1        0.1388
      7 C           7.2356   41.8598   12.2081 C.ar    1  UNL1        0.0384
      8 C           6.8663   41.9107   10.8597 C.ar    1  UNL1        0.0207
      9 C           7.7484   41.4551    9.8728 C.ar    1  UNL1        0.0674
     10 C           8.9964   40.9381   10.2382 C.ar    1  UNL1        0.0207
     11 C           9.3654   40.8879   11.5848 C.ar    1  UNL1        0.0384
     12 C          10.1407   41.0099   14.3823 C.3     1  UNL1        0.2525
     13 O           8.8278   41.3151   13.9335 O.3     1  UNL1       -0.4714
     14 C           9.6036   41.7878    7.3484 C.ar    1  UNL1        0.0364
     15 C          10.3255   41.2207    6.2878 C.ar    1  UNL1        0.0043
     16 C          11.7139   41.3628    6.2178 C.ar    1  UNL1        0.0148
     17 C          12.4032   42.0753    7.2094 C.ar    1  UNL1        0.0505
     18 C          11.6857   42.6462    8.2646 C.ar    1  UNL1        0.0148
     19 C          10.2980   42.5015    8.3349 C.ar    1  UNL1        0.0043
     20 C          14.5043   43.4226    6.6320 C.2     1  UNL1        0.2495
     21 O          13.8766   44.2956    5.9693 O.2     1  UNL1       -0.2698
     22 N          13.8215   42.2717    7.1519 N.am    1  UNL1       -0.2804
     23 H          14.3840   41.5446    7.5043 H       1  UNL1        0.1552
     24 C          15.9511   43.5790    6.8631 C.ar    1  UNL1        0.0537
     25 C          16.7941   44.0178    5.8294 C.ar    1  UNL1        0.0045
     26 C          18.1647   44.1771    6.0557 C.ar    1  UNL1        0.0001
     27 C          18.7022   43.9001    7.3170 C.ar    1  UNL1        0.0000
     28 C          17.8701   43.4632    8.3519 C.ar    1  UNL1        0.0001
     29 C          16.4996   43.3032    8.1258 C.ar    1  UNL1        0.0045
     30 S           4.6409   41.1569    8.9923 S.3     1  UNL1       -0.0655
     31 C           4.6258   42.8960    9.5356 C.3     1  UNL1        0.1496
     32 C           4.1576   43.8416    8.4738 C.2     1  UNL1        0.2308
     33 O           3.0065   44.3546    8.5150 O.2     1  UNL1       -0.2744
     34 N           5.0323   44.1669    7.4005 N.am    1  UNL1       -0.3281
     35 H           5.9325   43.7703    7.3617 H       1  UNL1        0.1450
     36 H           4.7375   44.7886    6.6964 H       1  UNL1        0.1450
@<TRIPOS>BOND
     1    12    13    1
     2     6    13    1
     3     7     8   ar
     4     9    10   ar
     5     9     3    1
     6    11     6   ar
     7     1    30    1
     8    31    30    1
     9    31    32    1
    10    32    34   am
    11     2    14    1
    12     2     3   ar
    13    15    16   ar
    14    17    22    1
    15    17    18   ar
    16    20    24    1
    17    25    26   ar
    18    27    28   ar
    19    29    24   ar
    20    19    14   ar
    21     3     1   ar
    22     4     5   ar
    23    22    20   am
    24     6     7   ar
    25     8     9   ar
    26    10    11   ar
    27     1     4   ar
    28    32    33    2
    29     2     5   ar
    30    14    15   ar
    31    16    17   ar
    32    20    21    2
    33    24    25   ar
    34    26    27   ar
    35    28    29   ar
    36    18    19   ar
    37    34    35    1
    38    34    36    1
    39    22    23    1
@<TRIPOS>MOLECULE
MolPort-000-013-327 976380 CSSS03436552884 MCULE-2119931216 PubChem-1206670 ZINC000000976380 ZINC00976380
 36 39 0 0 0
SMALL
GASTEIGER

@<TRIPOS>ATOM
      1 C           6.4276   41.1416    9.4335 C.ar    1  UNL1        0.1975
      2 C           8.4548   41.7392    9.5829 C.ar    1  UNL1        0.1706
      3 N           7.6041   41.0523    8.7861 N.ar    1  UNL1       -0.2690
      4 N           6.5426   41.8453   10.5747 N.ar    1  UNL1       -0.1218
      5 N           7.8101   42.2212   10.6676 N.ar    1  UNL1       -0.1279
      6 C           8.3686   39.0830    5.1134 C.ar    1  UNL1        0.1388
      7 C           8.0005   40.4333    5.1256 C.ar    1  UNL1        0.0384
      8 C           7.7437   41.0835    6.3374 C.ar    1  UNL1        0.0207
      9 C           7.8508   40.3844    7.5455 C.ar    1  UNL1        0.0674
     10 C           8.2262   39.0363    7.5397 C.ar    1  UNL1        0.0207
     11 C           8.4820   38.3868    6.3296 C.ar    1  UNL1        0.0384
     12 C           9.5227   37.3738    3.7514 C.3     1  UNL1        0.2525
     13 O           8.6165   38.4595    3.8873 O.3     1  UNL1       -0.4714
     14 C           9.8966   41.9749    9.3370 C.ar    1  UNL1        0.0364
     15 C          10.3809   41.9686    8.0205 C.ar    1  UNL1        0.0043
     16 C          11.7334   42.2048    7.7604 C.ar    1  UNL1        0.0148
     17 C          12.6244   42.4511    8.8147 C.ar    1  UNL1        0.0505
     18 C          12.1435   42.4634   10.1273 C.ar    1  UNL1        0.0148
     19 C          10.7916   42.2248   10.3864 C.ar    1  UNL1        0.0043
     20 C          14.6998   42.6554    7.3268 C.2     1  UNL1        0.2495
     21 O          14.1528   42.1096    6.3276 O.2     1  UNL1       -0.2698
     22 N          14.0104   42.7322    8.5837 N.am    1  UNL1       -0.2804
     23 H          14.5432   43.0054    9.3652 H       1  UNL1        0.1552
     24 C          16.0610   43.2065    7.2062 C.ar    1  UNL1        0.0537
     25 C          16.9940   43.0328    8.2412 C.ar    1  UNL1        0.0045
     26 C          18.2887   43.5463    8.1181 C.ar    1  UNL1        0.0001
     27 C          18.6605   44.2359    6.9593 C.ar    1  UNL1        0.0000
     28 C          17.7380   44.4131    5.9239 C.ar    1  UNL1        0.0001
     29 C          16.4431   43.9002    6.0469 C.ar    1  UNL1        0.0045
     30 S           4.8880   40.4197    8.8650 S.3     1  UNL1       -0.0655
     31 C           4.2287   42.0231    8.3044 C.3     1  UNL1        0.1496
     32 C           3.6791   42.8572    9.4193 C.2     1  UNL1        0.2308
     33 O           4.1795   43.9784    9.7065 O.2     1  UNL1       -0.2744
     34 N           2.5693   42.3728   10.1652 N.am    1  UNL1       -0.3281
     35 H           2.1733   41.4984    9.9467 H       1  UNL1        0.1450
     36 H           2.1970   42.9120   10.9000 H       1  UNL1        0.1450
@<TRIPOS>BOND
     1    12    13    1
     2     6    13    1
     3     7     8   ar
     4     9    10   ar
     5     9     3    1
     6    11     6   ar
     7     1    30    1
     8    31    30    1
     9    31    32    1
    10    32    34   am
    11     2    14    1
    12     2     3   ar
    13    15    16   ar
    14    17    22    1
    15    17    18   ar
    16    20    24    1
    17    25    26   ar
    18    27    28   ar
    19    29    24   ar
    20    19    14   ar
    21     3     1   ar
    22     4     5   ar
    23    22    20   am
    24     6     7   ar
    25     8     9   ar
    26    10    11   ar
    27     1     4   ar
    28    32    33    2
    29     2     5   ar
    30    14    15   ar
    31    16    17   ar
    32    20    21    2
    33    24    25   ar
    34    26    27   ar
    35    28    29   ar
    36    18    19   ar
    37    34    35    1
    38    34    36    1
    39    22    23    1
@<TRIPOS>MOLECULE
MolPort-000-013-327 976380 CSSS03436552884 MCULE-2119931216 PubChem-1206670 ZINC000000976380 ZINC00976380
 36 39 0 0 0
SMALL
GASTEIGER

@<TRIPOS>ATOM
      1 C          -0.3937   40.6220   13.6669 C.ar    1  UNL1        0.1975
      2 C           1.4415   40.6438   12.6084 C.ar    1  UNL1        0.1706
      3 N           0.6712   41.4063   13.4179 N.ar    1  UNL1       -0.2690
      4 N          -0.2910   39.4347   13.0419 N.ar    1  UNL1       -0.1218
      5 N           0.8578   39.4470   12.3813 N.ar    1  UNL1       -0.1279
      6 C           1.3157   45.3148   14.9213 C.ar    1  UNL1        0.1388
      7 C           0.5069   45.1171   13.7963 C.ar    1  UNL1        0.0384
      8 C           0.2967   43.8274   13.2965 C.ar    1  UNL1        0.0207
      9 C           0.8982   42.7270   13.9184 C.ar    1  UNL1        0.0674
     10 C           1.7015   42.9180   15.0483 C.ar    1  UNL1        0.0207
     11 C           1.9118   44.2059   15.5471 C.ar    1  UNL1        0.0384
     12 C           2.7406   47.3078   15.2469 C.3     1  UNL1        0.2525
     13 O           1.5093   46.6150   15.3964 O.3     1  UNL1       -0.4714
     14 C           2.7577   41.0146   12.0383 C.ar    1  UNL1        0.0364
     15 C           3.2206   42.3318   12.1740 C.ar    1  UNL1        0.0043
     16 C           4.4658   42.7033   11.6599 C.ar    1  UNL1        0.0148
     17 C           5.2688   41.7616   11.0007 C.ar    1  UNL1        0.0505
     18 C           4.8124   40.4469   10.8689 C.ar    1  UNL1        0.0148
     19 C           3.5663   40.0772   11.3811 C.ar    1  UNL1        0.0043
     20 C           7.7410   42.3780   11.2674 C.2     1  UNL1        0.2495
     21 O           7.6585   42.5587   12.5147 O.2     1  UNL1       -0.2698
     22 N           6.5657   42.0973   10.4922 N.am    1  UNL1       -0.2804
     23 H           6.6603   42.1397    9.5131 H       1  UNL1        0.1552
     24 C           9.0514   42.4684   10.5996 C.ar    1  UNL1        0.0537
     25 C           9.2822   43.4405    9.6129 C.ar    1  UNL1        0.0045
     26 C          10.5308   43.5316    8.9900 C.ar    1  UNL1        0.0001
     27 C          11.5578   42.6527    9.3499 C.ar    1  UNL1        0.0000
     28 C          11.3366   41.6822   10.3315 C.ar    1  UNL1        0.0001
     29 C          10.0880   41.5904   10.9541 C.ar    1  UNL1        0.0045
     30 S          -1.7864   41.0821   14.6982 S.3     1  UNL1       -0.0655
     31 C          -0.7861   42.2174   15.7133 C.3     1  UNL1        0.1496
     32 C          -1.3866   42.4917   17.0568 C.2     1  UNL1        0.2308
     33 O          -2.1373   41.6513   17.6227 O.2     1  UNL1       -0.2744
     34 N          -1.1004   43.7248   17.7052 N.am    1  UNL1       -0.3281
     35 H          -0.5151   44.3858   17.2696 H       1  UNL1        0.1450
     36 H          -1.4875   43.9173   18.5897 H       1  UNL1        0.1450
@<TRIPOS>BOND
     1    12    13    1
     2     6    13    1
     3     7     8   ar
     4     9    10   ar
     5     9     3    1
     6    11     6   ar
     7     1    30    1
     8    31    30    1
     9    31    32    1
    10    32    34   am
    11     2    14    1
    12     2     3   ar
    13    15    16   ar
    14    17    22    1
    15    17    18   ar
    16    20    24    1
    17    25    26   ar
    18    27    28   ar
    19    29    24   ar
    20    19    14   ar
    21     3     1   ar
    22     4     5   ar
    23    22    20   am
    24     6     7   ar
    25     8     9   ar
    26    10    11   ar
    27     1     4   ar
    28    32    33    2
    29     2     5   ar
    30    14    15   ar
    31    16    17   ar
    32    20    21    2
    33    24    25   ar
    34    26    27   ar
    35    28    29   ar
    36    18    19   ar
    37    34    35    1
    38    34    36    1
    39    22    23    1
@<TRIPOS>MOLECULE
MolPort-000-013-327 976380 CSSS03436552884 MCULE-2119931216 PubChem-1206670 ZINC000000976380 ZINC00976380
 36 39 0 0 0
SMALL
GASTEIGER

@<TRIPOS>ATOM
      1 C           1.7900   37.5185   11.3408 C.ar    1  UNL1        0.1975
      2 C           3.0156   39.1521   10.7765 C.ar    1  UNL1        0.1706
      3 N           2.9468   38.1285   11.6585 N.ar    1  UNL1       -0.2690
      4 N           1.1713   38.1332   10.3161 N.ar    1  UNL1       -0.1218
      5 N           1.9384   39.1540    9.9614 N.ar    1  UNL1       -0.1279
      6 C           5.6343   36.9731   14.7235 C.ar    1  UNL1        0.1388
      7 C           4.7058   37.9958   14.9491 C.ar    1  UNL1        0.0384
      8 C           3.8207   38.3811   13.9365 C.ar    1  UNL1        0.0207
      9 C           3.8619   37.7465   12.6894 C.ar    1  UNL1        0.0674
     10 C           4.7829   36.7179   12.4609 C.ar    1  UNL1        0.0207
     11 C           5.6671   36.3336   13.4719 C.ar    1  UNL1        0.0384
     12 C           7.2573   35.4050   15.7312 C.3     1  UNL1        0.2525
     13 O           6.5074   36.6116   15.7533 O.3     1  UNL1       -0.4714
     14 C           4.1063   40.1485   10.6657 C.ar    1  UNL1        0.0364
     15 C           4.2602   40.8715    9.4736 C.ar    1  UNL1        0.0043
     16 C           5.2705   41.8289    9.3493 C.ar    1  UNL1        0.0148
     17 C           6.1444   42.0784   10.4171 C.ar    1  UNL1        0.0505
     18 C           5.9898   41.3632   11.6083 C.ar    1  UNL1        0.0148
     19 C           4.9810   40.4046   11.7306 C.ar    1  UNL1        0.0043
     20 C           8.4893   42.9060    9.8010 C.2     1  UNL1        0.2495
     21 O           8.9291   41.7521    9.5354 O.2     1  UNL1       -0.2698
     22 N           7.1691   43.0770   10.3384 N.am    1  UNL1       -0.2804
     23 H           6.9454   43.9698   10.6879 H       1  UNL1        0.1552
     24 C           9.3416   44.0855    9.5698 C.ar    1  UNL1        0.0537
     25 C          10.7339   43.9459    9.4513 C.ar    1  UNL1        0.0045
     26 C          11.5385   45.0658    9.2196 C.ar    1  UNL1        0.0001
     27 C          10.9572   46.3328    9.1034 C.ar    1  UNL1        0.0000
     28 C           9.5719   46.4806    9.2196 C.ar    1  UNL1        0.0001
     29 C           8.7671   45.3611    9.4520 C.ar    1  UNL1        0.0045
     30 S           1.1361   36.0679   12.1672 S.3     1  UNL1       -0.0655
     31 C           1.5531   34.9664   10.7770 C.3     1  UNL1        0.1496
     32 C           0.3963   34.7056    9.8636 C.2     1  UNL1        0.2308
     33 O           0.0510   33.5306    9.5631 O.2     1  UNL1       -0.2744
     34 N          -0.3263   35.8073    9.3281 N.am    1  UNL1       -0.3281
     35 H          -0.0626   36.7275    9.5582 H       1  UNL1        0.1450
     36 H          -1.0902   35.6498    8.7274 H       1  UNL1        0.1450
@<TRIPOS>BOND
     1    12    13    1
     2     6    13    1
     3     7     8   ar
     4     9    10   ar
     5     9     3    1
     6    11     6   ar
     7     1    30    1
     8    31    30    1
     9    31    32    1
    10    32    34   am
    11     2    14    1
    12     2     3   ar
    13    15    16   ar
    14    17    22    1
    15    17    18   ar
    16    20    24    1
    17    25    26   ar
    18    27    28   ar
    19    29    24   ar
    20    19    14   ar
    21     3     1   ar
    22     4     5   ar
    23    22    20   am
    24     6     7   ar
    25     8     9   ar
    26    10    11   ar
    27     1     4   ar
    28    32    33    2
    29     2     5   ar
    30    14    15   ar
    31    16    17   ar
    32    20    21    2
    33    24    25   ar
    34    26    27   ar
    35    28    29   ar
    36    18    19   ar
    37    34    35    1
    38    34    36    1
    39    22    23    1
@<TRIPOS>MOLECULE
MolPort-000-013-327 976380 CSSS03436552884 MCULE-2119931216 PubChem-1206670 ZINC000000976380 ZINC00976380
 36 39 0 0 0
SMALL
GASTEIGER

@<TRIPOS>ATOM
      1 C          15.1155   41.9497    7.9826 C.ar    1  UNL1        0.1975
      2 C          13.0067   42.1203    8.0947 C.ar    1  UNL1        0.1706
      3 N          14.0252   41.2891    8.4139 N.ar    1  UNL1       -0.2690
      4 N          14.7903   43.1291    7.4222 N.ar    1  UNL1       -0.1218
      5 N          13.4714   43.2373    7.4939 N.ar    1  UNL1       -0.1279
      6 C          13.9048   37.5083   10.3227 C.ar    1  UNL1        0.1388
      7 C          13.8065   38.6825   11.0781 C.ar    1  UNL1        0.0384
      8 C          13.8504   39.9315   10.4494 C.ar    1  UNL1        0.0207
      9 C          13.9963   40.0130    9.0596 C.ar    1  UNL1        0.0674
     10 C          14.0871   38.8421    8.2985 C.ar    1  UNL1        0.0207
     11 C          14.0439   37.5948    8.9264 C.ar    1  UNL1        0.0384
     12 C          13.0069   35.2183   10.5625 C.3     1  UNL1        0.2525
     13 O          13.8603   36.2750   10.9788 O.3     1  UNL1       -0.4714
     14 C          11.5671   41.8933    8.3612 C.ar    1  UNL1        0.0364
     15 C          11.0589   42.1302    9.6470 C.ar    1  UNL1        0.0043
     16 C           9.7018   41.9398    9.9203 C.ar    1  UNL1        0.0148
     17 C           8.8302   41.5085    8.9102 C.ar    1  UNL1        0.0505
     18 C           9.3329   41.2770    7.6264 C.ar    1  UNL1        0.0148
     19 C          10.6902   41.4654    7.3549 C.ar    1  UNL1        0.0043
     20 C           6.7390   41.5275   10.3899 C.2     1  UNL1        0.2495
     21 O           7.3865   41.6673   11.4653 O.2     1  UNL1       -0.2698
     22 N           7.4270   41.3366    9.1444 N.am    1  UNL1       -0.2804
     23 H           6.8799   41.0600    8.3741 H       1  UNL1        0.1552
     24 C           5.2659   41.5475   10.4143 C.ar    1  UNL1        0.0537
     25 C           4.5300   41.2136    9.2659 C.ar    1  UNL1        0.0045
     26 C           3.1320   41.2215    9.2961 C.ar    1  UNL1        0.0001
     27 C           2.4598   41.5617   10.4747 C.ar    1  UNL1        0.0000
     28 C           3.1847   41.8950   11.6226 C.ar    1  UNL1        0.0001
     29 C           4.5825   41.8879   11.5926 C.ar    1  UNL1        0.0045
     30 S          16.7996   41.3511    8.1258 S.3     1  UNL1       -0.0655
     31 C          16.5804   40.8563    9.8656 C.3     1  UNL1        0.1496
     32 C          17.5805   39.8395   10.3201 C.2     1  UNL1        0.2308
     33 O          17.4822   39.2823   11.4470 O.2     1  UNL1       -0.2744
     34 N          18.6600   39.4964    9.4600 N.am    1  UNL1       -0.3281
     35 H          18.7433   39.9272    8.5787 H       1  UNL1        0.1450
     36 H          19.3239   38.8280    9.7459 H       1  UNL1        0.1450
@<TRIPOS>BOND
     1    12    13    1
     2     6    13    1
     3     7     8   ar
     4     9    10   ar
     5     9     3    1
     6    11     6   ar
     7     1    30    1
     8    31    30    1
     9    31    32    1
    10    32    34   am
    11     2    14    1
    12     2     3   ar
    13    15    16   ar
    14    17    22    1
    15    17    18   ar
    16    20    24    1
    17    25    26   ar
    18    27    28   ar
    19    29    24   ar
    20    19    14   ar
    21     3     1   ar
    22     4     5   ar
    23    22    20   am
    24     6     7   ar
    25     8     9   ar
    26    10    11   ar
    27     1     4   ar
    28    32    33    2
    29     2     5   ar
    30    14    15   ar
    31    16    17   ar
    32    20    21    2
    33    24    25   ar
    34    26    27   ar
    35    28    29   ar
    36    18    19   ar
    37    34    35    1
    38    34    36    1
    39    22    23    1
@<TRIPOS>MOLECULE
MolPort-000-013-327 976380 CSSS03436552884 MCULE-2119931216 PubChem-1206670 ZINC000000976380 ZINC00976380
 36 39 0 0 0
SMALL
GASTEIGER

@<TRIPOS>ATOM
      1 C           8.6148   42.6367   11.8226 C.ar    1  UNL1        0.1975
      2 C           8.3090   41.7643    9.9162 C.ar    1  UNL1        0.1706
      3 N           9.2357   41.8857   10.8943 N.ar    1  UNL1       -0.2690
      4 N           7.3678   42.9666   11.4394 N.ar    1  UNL1       -0.1218
      5 N           7.1752   42.4195   10.2478 N.ar    1  UNL1       -0.1279
      6 C          13.1556   40.2895   11.0914 C.ar    1  UNL1        0.1388
      7 C          12.1742   39.8612   11.9927 C.ar    1  UNL1        0.0384
      8 C          10.8806   40.3906   11.9313 C.ar    1  UNL1        0.0207
      9 C          10.5621   41.3554   10.9684 C.ar    1  UNL1        0.0674
     10 C          11.5373   41.7815   10.0595 C.ar    1  UNL1        0.0207
     11 C          12.8292   41.2532   10.1212 C.ar    1  UNL1        0.0384
     12 C          14.7918   38.5155   10.5586 C.3     1  UNL1        0.2525
     13 O          14.4396   39.7443   11.1785 O.3     1  UNL1       -0.4714
     14 C           8.4592   41.0138    8.6478 C.ar    1  UNL1        0.0364
     15 C           9.6528   40.3221    8.3939 C.ar    1  UNL1        0.0043
     16 C           9.8134   39.5930    7.2126 C.ar    1  UNL1        0.0148
     17 C           8.7811   39.5444    6.2650 C.ar    1  UNL1        0.0505
     18 C           7.5884   40.2283    6.5179 C.ar    1  UNL1        0.0148
     19 C           7.4297   40.9589    7.6980 C.ar    1  UNL1        0.0043
     20 C           9.7617   39.0589    3.9487 C.2     1  UNL1        0.2495
     21 O          10.3603   40.1681    3.8660 O.2     1  UNL1       -0.2698
     22 N           8.8965   38.7786    5.0594 N.am    1  UNL1       -0.2804
     23 H           8.3252   37.9802    4.9853 H       1  UNL1        0.1552
     24 C           9.9421   38.0490    2.8910 C.ar    1  UNL1        0.0537
     25 C           9.8789   36.6796    3.1955 C.ar    1  UNL1        0.0045
     26 C          10.0381   35.7240    2.1872 C.ar    1  UNL1        0.0001
     27 C          10.2602   36.1303    0.8673 C.ar    1  UNL1        0.0000
     28 C          10.3242   37.4915    0.5553 C.ar    1  UNL1        0.0001
     29 C          10.1657   38.4473    1.5634 C.ar    1  UNL1        0.0045
     30 S           9.3404   43.1461   13.3811 S.3     1  UNL1       -0.0655
     31 C           8.3648   41.9436   14.3414 C.3     1  UNL1        0.1496
     32 C           9.1885   40.8221   14.8931 C.2     1  UNL1        0.2308
     33 O          10.4480   40.8811   14.9095 O.2     1  UNL1       -0.2744
     34 N           8.5337   39.6703   15.4101 N.am    1  UNL1       -0.3281
     35 H           7.5507   39.6171   15.4007 H       1  UNL1        0.1450
     36 H           9.0635   38.9262   15.7774 H       1  UNL1        0.1450
@<TRIPOS>BOND
     1    12    13    1
     2     6    13    1
     3     7     8   ar
     4     9    10   ar
     5     9     3    1
     6    11     6   ar
     7     1    30    1
     8    31    30    1
     9    31    32    1
    10    32    34   am
    11     2    14    1
    12     2     3   ar
    13    15    16   ar
    14    17    22    1
    15    17    18   ar
    16    20    24    1
    17    25    26   ar
    18    27    28   ar
    19    29    24   ar
    20    19    14   ar
    21     3     1   ar
    22     4     5   ar
    23    22    20   am
    24     6     7   ar
    25     8     9   ar
    26    10    11   ar
    27     1     4   ar
    28    32    33    2
    29     2     5   ar
    30    14    15   ar
    31    16    17   ar
    32    20    21    2
    33    24    25   ar
    34    26    27   ar
    35    28    29   ar
    36    18    19   ar
    37    34    35    1
    38    34    36    1
    39    22    23    1
@<TRIPOS>MOLECULE
MolPort-000-013-327 976380 CSSS03436552884 MCULE-2119931216 PubChem-1206670 ZINC000000976380 ZINC00976380
 36 39 0 0 0
SMALL
GASTEIGER

@<TRIPOS>ATOM
      1 C           7.3364   39.5251    6.9971 C.ar    1  UNL1        0.1975
      2 C           9.3674   38.9994    7.2930 C.ar    1  UNL1        0.1706
      3 N           8.4521   39.9383    7.6260 N.ar    1  UNL1       -0.2690
      4 N           7.5488   38.3895    6.3071 N.ar    1  UNL1       -0.1218
      5 N           8.8186   38.0591    6.4934 N.ar    1  UNL1       -0.1279
      6 C           8.8317   43.3884   10.0561 C.ar    1  UNL1        0.1388
      7 C           9.2070   43.4310    8.7084 C.ar    1  UNL1        0.0384
      8 C           9.0861   42.2913    7.9061 C.ar    1  UNL1        0.0207
      9 C           8.5913   41.0998    8.4493 C.ar    1  UNL1        0.0674
     10 C           8.2071   41.0537    9.7942 C.ar    1  UNL1        0.0207
     11 C           8.3284   42.1916   10.5956 C.ar    1  UNL1        0.0384
     12 C           8.6183   45.8327   10.3522 C.3     1  UNL1        0.2525
     13 O           8.9662   44.5421   10.8335 O.3     1  UNL1       -0.4714
     14 C          10.7817   38.9523    7.7317 C.ar    1  UNL1        0.0364
     15 C          11.1637   38.0424    8.7285 C.ar    1  UNL1        0.0043
     16 C          12.4944   37.9664    9.1484 C.ar    1  UNL1        0.0148
     17 C          13.4655   38.8009    8.5769 C.ar    1  UNL1        0.0505
     18 C          13.0887   39.7049    7.5793 C.ar    1  UNL1        0.0148
     19 C          11.7576   39.7817    7.1621 C.ar    1  UNL1        0.0043
     20 C          15.3583   38.6065   10.2923 C.2     1  UNL1        0.2495
     21 O          14.5997   38.7734   11.2882 O.2     1  UNL1       -0.2698
     22 N          14.8452   38.7265    8.9569 N.am    1  UNL1       -0.2804
     23 H          15.5075   38.7611    8.2293 H       1  UNL1        0.1552
     24 C          16.7841   38.2989   10.5013 C.ar    1  UNL1        0.0537
     25 C          17.7432   39.3245   10.4892 C.ar    1  UNL1        0.0045
     26 C          19.0938   39.0306   10.7004 C.ar    1  UNL1        0.0001
     27 C          19.4952   37.7098   10.9264 C.ar    1  UNL1        0.0000
     28 C          18.5469   36.6828   10.9404 C.ar    1  UNL1        0.0001
     29 C          17.1964   36.9762   10.7287 C.ar    1  UNL1        0.0045
     30 S           5.7548   40.3676    7.0569 S.3     1  UNL1       -0.0655
     31 C           6.5077   41.9561    7.5363 C.3     1  UNL1        0.1496
     32 C           6.4066   43.0022    6.4704 C.2     1  UNL1        0.2308
     33 O           6.5624   44.2250    6.7360 O.2     1  UNL1       -0.2744
     34 N           6.1315   42.6047    5.1328 N.am    1  UNL1       -0.3281
     35 H           6.0087   41.6518    4.9179 H       1  UNL1        0.1450
     36 H           6.0640   43.2824    4.4219 H       1  UNL1        0.1450
@<TRIPOS>BOND
     1    12    13    1
     2     6    13    1
     3     7     8   ar
     4     9    10   ar
     5     9     3    1
     6    11     6   ar
     7     1    30    1
     8    31    30    1
     9    31    32    1
    10    32    34   am
    11     2    14    1
    12     2     3   ar
    13    15    16   ar
    14    17    22    1
    15    17    18   ar
    16    20    24    1
    17    25    26   ar
    18    27    28   ar
    19    29    24   ar
    20    19    14   ar
    21     3     1   ar
    22     4     5   ar
    23    22    20   am
    24     6     7   ar
    25     8     9   ar
    26    10    11   ar
    27     1     4   ar
    28    32    33    2
    29     2     5   ar
    30    14    15   ar
    31    16    17   ar
    32    20    21    2
    33    24    25   ar
    34    26    27   ar
    35    28    29   ar
    36    18    19   ar
    37    34    35    1
    38    34    36    1
    39    22    23    1
@<TRIPOS>MOLECULE
MolPort-000-013-327 976380 CSSS03436552884 MCULE-2119931216 PubChem-1206670 ZINC000000976380 ZINC00976380
 36 39 0 0 0
SMALL
GASTEIGER

@<TRIPOS>ATOM
      1 C          13.0316   39.5181   10.1417 C.ar    1  UNL1        0.1975
      2 C          11.3022   40.7348   10.2752 C.ar    1  UNL1        0.1706
      3 N          12.0524   40.0463    9.3845 N.ar    1  UNL1       -0.2690
      4 N          12.8977   39.8632   11.4354 N.ar    1  UNL1       -0.1218
      5 N          11.8149   40.6226   11.5199 N.ar    1  UNL1       -0.1279
      6 C          11.5102   39.5898    5.2072 C.ar    1  UNL1        0.1388
      7 C          10.9611   38.6575    6.0951 C.ar    1  UNL1        0.0384
      8 C          11.1430   38.8048    7.4743 C.ar    1  UNL1        0.0207
      9 C          11.8792   39.8857    7.9737 C.ar    1  UNL1        0.0674
     10 C          12.4238   40.8252    7.0910 C.ar    1  UNL1        0.0207
     11 C          12.2427   40.6778    5.7136 C.ar    1  UNL1        0.0384
     12 C          10.0727   38.9920    3.2878 C.3     1  UNL1        0.2525
     13 O          11.3139   39.4151    3.8345 O.3     1  UNL1       -0.4714
     14 C          10.0713   41.5052    9.9819 C.ar    1  UNL1        0.0364
     15 C           8.9544   40.8431    9.4509 C.ar    1  UNL1        0.0043
     16 C           7.7758   41.5436    9.1809 C.ar    1  UNL1        0.0148
     17 C           7.6957   42.9197    9.4379 C.ar    1  UNL1        0.0505
     18 C           8.8053   43.5810    9.9723 C.ar    1  UNL1        0.0148
     19 C           9.9839   42.8803   10.2396 C.ar    1  UNL1        0.0043
     20 C           6.0206   44.1534    7.9429 C.2     1  UNL1        0.2495
     21 O           6.7727   44.1395    6.9282 O.2     1  UNL1       -0.2698
     22 N           6.4928   43.6635    9.2070 N.am    1  UNL1       -0.2804
     23 H           5.9343   43.8581    9.9940 H       1  UNL1        0.1552
     24 C           4.6520   44.6882    7.8325 C.ar    1  UNL1        0.0537
     25 C           3.5838   44.0512    8.4844 C.ar    1  UNL1        0.0045
     26 C           2.2883   44.5685    8.3878 C.ar    1  UNL1        0.0001
     27 C           2.0517   45.7268    7.6401 C.ar    1  UNL1        0.0000
     28 C           3.1095   46.3675    6.9883 C.ar    1  UNL1        0.0001
     29 C           4.4049   45.8501    7.0842 C.ar    1  UNL1        0.0045
     30 S          14.3588   38.4827    9.5242 S.3     1  UNL1       -0.0655
     31 C          15.5951   39.8137    9.6640 C.3     1  UNL1        0.1496
     32 C          17.0027   39.3076    9.7219 C.2     1  UNL1        0.2308
     33 O          17.2561   38.0726    9.6976 O.2     1  UNL1       -0.2744
     34 N          18.0723   40.2414    9.8038 N.am    1  UNL1       -0.3281
     35 H          17.8821   41.2072    9.8233 H       1  UNL1        0.1450
     36 H          19.0028   39.9221    9.8410 H       1  UNL1        0.1450
@<TRIPOS>BOND
     1    12    13    1
     2     6    13    1
     3     7     8   ar
     4     9    10   ar
     5     9     3    1
     6    11     6   ar
     7     1    30    1
     8    31    30    1
     9    31    32    1
    10    32    34   am
    11     2    14    1
    12     2     3   ar
    13    15    16   ar
    14    17    22    1
    15    17    18   ar
    16    20    24    1
    17    25    26   ar
    18    27    28   ar
    19    29    24   ar
    20    19    14   ar
    21     3     1   ar
    22     4     5   ar
    23    22    20   am
    24     6     7   ar
    25     8     9   ar
    26    10    11   ar
    27     1     4   ar
    28    32    33    2
    29     2     5   ar
    30    14    15   ar
    31    16    17   ar
    32    20    21    2
    33    24    25   ar
    34    26    27   ar
    35    28    29   ar
    36    18    19   ar
    37    34    35    1
    38    34    36    1
    39    22    23    1
@<TRIPOS>MOLECULE
MolPort-000-013-327 976380 CSSS03436552884 MCULE-2119931216 PubChem-1206670 ZINC000000976380 ZINC00976380
 36 39 0 0 0
SMALL
GASTEIGER

@<TRIPOS>ATOM
      1 C          14.5960   39.3823   10.6829 C.ar    1  UNL1        0.1975
      2 C          12.5629   39.9644   10.8121 C.ar    1  UNL1        0.1706
      3 N          13.6798   40.1570   10.0733 N.ar    1  UNL1       -0.2690
      4 N          14.0754   38.7438   11.7469 N.ar    1  UNL1       -0.1218
      5 N          12.8031   39.1059   11.8270 N.ar    1  UNL1       -0.1279
      6 C          14.2711   42.5967    6.6601 C.ar    1  UNL1        0.1388
      7 C          12.9831   42.1765    7.0113 C.ar    1  UNL1        0.0384
      8 C          12.7870   41.3674    8.1357 C.ar    1  UNL1        0.0207
      9 C          13.8807   40.9709    8.9143 C.ar    1  UNL1        0.0674
     10 C          15.1698   41.3947    8.5725 C.ar    1  UNL1        0.0207
     11 C          15.3657   42.2021    7.4493 C.ar    1  UNL1        0.0384
     12 C          14.8575   44.7568    5.6121 C.3     1  UNL1        0.2525
     13 O          14.4362   43.4024    5.5300 O.3     1  UNL1       -0.4714
     14 C          11.2327   40.5713   10.5736 C.ar    1  UNL1        0.0364
     15 C          10.7415   41.5294   11.4728 C.ar    1  UNL1        0.0043
     16 C           9.4971   42.1291   11.2617 C.ar    1  UNL1        0.0148
     17 C           8.7230   41.7793   10.1461 C.ar    1  UNL1        0.0505
     18 C           9.2125   40.8289    9.2453 C.ar    1  UNL1        0.0148
     19 C          10.4556   40.2282    9.4586 C.ar    1  UNL1        0.0043
     20 C           7.2290   43.5463    9.0468 C.2     1  UNL1        0.2495
     21 O           8.1973   44.2471    8.6389 O.2     1  UNL1       -0.2698
     22 N           7.4589   42.3987    9.8782 N.am    1  UNL1       -0.2804
     23 H           6.6691   41.9972   10.3073 H       1  UNL1        0.1552
     24 C           5.8511   43.9157    8.6777 C.ar    1  UNL1        0.0537
     25 C           5.6130   44.8338    7.6421 C.ar    1  UNL1        0.0045
     26 C           4.3040   45.1727    7.2862 C.ar    1  UNL1        0.0001
     27 C           3.2237   44.5954    7.9618 C.ar    1  UNL1        0.0000
     28 C           3.4517   43.6803    8.9936 C.ar    1  UNL1        0.0001
     29 C           4.7606   43.3416    9.3503 C.ar    1  UNL1        0.0045
     30 S          16.3023   39.2091   10.1601 S.3     1  UNL1       -0.0655
     31 C          15.8968   37.9360    8.9213 C.3     1  UNL1        0.1496
     32 C          14.8831   36.9457    9.4033 C.2     1  UNL1        0.2308
     33 O          15.1621   36.1084   10.3039 O.2     1  UNL1       -0.2744
     34 N          13.5801   36.9543    8.8332 N.am    1  UNL1       -0.3281
     35 H          13.3549   37.6051    8.1296 H       1  UNL1        0.1450
     36 H          12.9034   36.3095    9.1421 H       1  UNL1        0.1450
@<TRIPOS>BOND
     1    12    13    1
     2     6    13    1
     3     7     8   ar
     4     9    10   ar
     5     9     3    1
     6    11     6   ar
     7     1    30    1
     8    31    30    1
     9    31    32    1
    10    32    34   am
    11     2    14    1
    12     2     3   ar
    13    15    16   ar
    14    17    22    1
    15    17    18   ar
    16    20    24    1
    17    25    26   ar
    18    27    28   ar
    19    29    24   ar
    20    19    14   ar
    21     3     1   ar
    22     4     5   ar
    23    22    20   am
    24     6     7   ar
    25     8     9   ar
    26    10    11   ar
    27     1     4   ar
    28    32    33    2
    29     2     5   ar
    30    14    15   ar
    31    16    17   ar
    32    20    21    2
    33    24    25   ar
    34    26    27   ar
    35    28    29   ar
    36    18    19   ar
    37    34    35    1
    38    34    36    1
    39    22    23    1
