@<TRIPOS>MOLECULE
MolPort-005-073-458 12835630 CSSS00159491738 MCULE-1852119178 PubChem-25544661 ZINC000012835630
 34 37 0 0 0
SMALL
GASTEIGER

@<TRIPOS>ATOM
      1 C          10.8581   41.4739    7.2570 C.ar    1  UNL1        0.1337
      2 C          10.0560   41.1226    6.1872 C.ar    1  UNL1        0.0566
      3 C           8.8045   41.6080    6.5499 C.ar    1  UNL1        0.1230
      4 N           8.8805   42.2046    7.7580 N.ar    1  UNL1       -0.1666
      5 N          10.1305   42.1204    8.1773 N.ar    1  UNL1       -0.2394
      6 C          13.3050   42.1858    7.3065 C.2     1  UNL1        0.3093
      7 O          13.0353   43.3917    7.0552 O.2     1  UNL1       -0.2521
      8 N          14.6600   41.7648    7.5092 N.am    1  UNL1       -0.2656
      9 N          12.2607   41.2106    7.3965 N.am    1  UNL1       -0.2536
     10 H          14.7963   40.8160    7.7341 H       1  UNL1        0.1565
     11 H          12.5286   40.2791    7.5690 H       1  UNL1        0.1578
     12 C          16.8616   42.4094    8.3706 C.ar    1  UNL1        0.1521
     13 C          15.8404   42.5780    7.4195 C.ar    1  UNL1        0.0859
     14 C          15.9997   43.5283    6.3984 C.ar    1  UNL1        0.0178
     15 C          17.1575   44.3056    6.3238 C.ar    1  UNL1        0.0015
     16 C          18.1695   44.1398    7.2703 C.ar    1  UNL1        0.0032
     17 C          18.0230   43.1962    8.2892 C.ar    1  UNL1        0.0382
     18 C          15.8068   40.3613    9.2806 C.3     1  UNL1        0.2525
     19 O          16.7020   41.4598    9.3865 O.3     1  UNL1       -0.4702
     20 C          10.6229   42.6373    9.4517 C.3     1  UNL1        0.1093
     21 C           9.6785   43.7099   10.0170 C.3     1  UNL1        0.0418
     22 C           8.7789   43.1793   11.1348 C.3     1  UNL1        0.0741
     23 C           9.6683   40.9840   11.1847 C.3     1  UNL1        0.0741
     24 C          10.9140   41.4958   10.4372 C.3     1  UNL1        0.0418
     25 N           8.4688   41.7751   10.8995 N.3     1  UNL1       -0.2725
     26 C           7.4556   41.3922   11.8694 C.3     1  UNL1        0.0724
     27 C           6.0712   41.5035   11.2529 C.3     1  UNL1        0.0220
     28 C           6.1736   41.5402    9.7323 C.3     1  UNL1        0.0278
     29 C           5.4283   42.6804    9.1019 C.ar    1  UNL1       -0.0221
     30 C           6.1410   43.5683    8.2890 C.ar    1  UNL1       -0.0043
     31 C           5.4917   44.6457    7.6780 C.ar    1  UNL1       -0.0003
     32 C           4.1223   44.8415    7.8777 C.ar    1  UNL1       -0.0000
     33 C           3.4017   43.9593    8.6870 C.ar    1  UNL1       -0.0003
     34 C           4.0511   42.8816    9.2969 C.ar    1  UNL1       -0.0043
@<TRIPOS>BOND
     1    18    19    1
     2    12    19    1
     3    13     8    1
     4    13    14   ar
     5     6     9   am
     6     2     3   ar
     7    20     5    1
     8    20    21    1
     9    21    22    1
    10    22    25    1
    11    26    25    1
    12    26    27    1
    13    27    28    1
    14    28    29    1
    15    30    31   ar
    16    32    33   ar
    17    34    29   ar
    18    23    25    1
    19    23    24    1
    20    24    20    1
    21    15    16   ar
    22    17    12   ar
    23     8     6   am
    24     9     1    1
    25     5     4   ar
    26     5     1   ar
    27    12    13   ar
    28     6     7    2
    29     1     2   ar
    30     3     4   ar
    31    29    30   ar
    32    31    32   ar
    33    33    34   ar
    34    14    15   ar
    35    16    17   ar
    36     8    10    1
    37     9    11    1
@<TRIPOS>MOLECULE
MolPort-005-073-458 12835630 CSSS00159491738 MCULE-1852119178 PubChem-25544661 ZINC000012835630
 34 37 0 0 0
SMALL
GASTEIGER

@<TRIPOS>ATOM
      1 C          11.0141   40.6723    7.3304 C.ar    1  UNL1        0.1337
      2 C          10.3226   39.7119    6.6157 C.ar    1  UNL1        0.0566
      3 C           9.4202   39.2064    7.5451 C.ar    1  UNL1        0.1230
      4 N           9.5816   39.8386    8.7264 N.ar    1  UNL1       -0.1666
      5 N          10.5487   40.7275    8.5853 N.ar    1  UNL1       -0.2394
      6 C          13.3923   41.5877    7.3838 C.2     1  UNL1        0.3093
      7 O          13.7073   40.9130    8.4013 O.2     1  UNL1       -0.2521
      8 N          14.3480   42.4472    6.7495 N.am    1  UNL1       -0.2656
      9 N          12.0707   41.5077    6.8389 N.am    1  UNL1       -0.2536
     10 H          14.0452   42.9195    5.9405 H       1  UNL1        0.1565
     11 H          11.8703   42.0750    6.0596 H       1  UNL1        0.1578
     12 C          16.4544   43.6741    6.5001 C.ar    1  UNL1        0.1521
     13 C          15.6999   42.6934    7.1671 C.ar    1  UNL1        0.0859
     14 C          16.2788   41.9841    8.2315 C.ar    1  UNL1        0.0178
     15 C          17.5929   42.2420    8.6275 C.ar    1  UNL1        0.0015
     16 C          18.3424   43.2136    7.9627 C.ar    1  UNL1        0.0032
     17 C          17.7765   43.9268    6.9040 C.ar    1  UNL1        0.0382
     18 C          14.8634   45.3616    5.6308 C.3     1  UNL1        0.2525
     19 O          15.8748   44.3818    5.4408 O.3     1  UNL1       -0.4702
     20 C          11.0359   41.6100    9.6425 C.3     1  UNL1        0.1093
     21 C          10.3456   42.9817    9.5815 C.3     1  UNL1        0.0418
     22 C           9.2416   43.1378   10.6290 C.3     1  UNL1        0.0741
     23 C           9.5380   41.0243   11.6577 C.3     1  UNL1        0.0741
     24 C          10.9363   40.9341   11.0181 C.3     1  UNL1        0.0418
     25 N           8.6094   41.8494   10.8812 N.3     1  UNL1       -0.2725
     26 C           7.4471   42.0995   11.7180 C.3     1  UNL1        0.0724
     27 C           6.2402   41.3522   11.1758 C.3     1  UNL1        0.0220
     28 C           6.2792   41.3244    9.6521 C.3     1  UNL1        0.0278
     29 C           5.5966   42.4950    9.0068 C.ar    1  UNL1       -0.0221
     30 C           6.3026   43.2253    8.0448 C.ar    1  UNL1       -0.0043
     31 C           5.7100   44.3236    7.4139 C.ar    1  UNL1       -0.0003
     32 C           4.4044   44.6987    7.7430 C.ar    1  UNL1       -0.0000
     33 C           3.6908   43.9749    8.7018 C.ar    1  UNL1       -0.0003
     34 C           4.2834   42.8761    9.3316 C.ar    1  UNL1       -0.0043
@<TRIPOS>BOND
     1    18    19    1
     2    12    19    1
     3    13     8    1
     4    13    14   ar
     5     6     9   am
     6     2     3   ar
     7    20     5    1
     8    20    21    1
     9    21    22    1
    10    22    25    1
    11    26    25    1
    12    26    27    1
    13    27    28    1
    14    28    29    1
    15    30    31   ar
    16    32    33   ar
    17    34    29   ar
    18    23    25    1
    19    23    24    1
    20    24    20    1
    21    15    16   ar
    22    17    12   ar
    23     8     6   am
    24     9     1    1
    25     5     4   ar
    26     5     1   ar
    27    12    13   ar
    28     6     7    2
    29     1     2   ar
    30     3     4   ar
    31    29    30   ar
    32    31    32   ar
    33    33    34   ar
    34    14    15   ar
    35    16    17   ar
    36     8    10    1
    37     9    11    1
@<TRIPOS>MOLECULE
MolPort-005-073-458 12835630 CSSS00159491738 MCULE-1852119178 PubChem-25544661 ZINC000012835630
 34 37 0 0 0
SMALL
GASTEIGER

@<TRIPOS>ATOM
      1 C          10.8436   40.2564    9.9608 C.ar    1  UNL1        0.1337
      2 C          11.1667   40.6829   11.2355 C.ar    1  UNL1        0.0566
      3 C          10.0399   41.3946   11.6322 C.ar    1  UNL1        0.1230
      4 N           9.1208   41.3792   10.6443 N.ar    1  UNL1       -0.1666
      5 N           9.6165   40.6842    9.6359 N.ar    1  UNL1       -0.2394
      6 C          12.7210   38.5945    9.5023 C.2     1  UNL1        0.3093
      7 O          13.0218   38.4859   10.7220 O.2     1  UNL1       -0.2521
      8 N          13.4257   37.8451    8.5041 N.am    1  UNL1       -0.2656
      9 N          11.6658   39.4692    9.0888 N.am    1  UNL1       -0.2536
     10 H          13.1177   37.9526    7.5752 H       1  UNL1        0.1565
     11 H          11.4895   39.5361    8.1225 H       1  UNL1        0.1578
     12 C          15.7709   37.4840    9.1156 C.ar    1  UNL1        0.1521
     13 C          14.5326   36.9543    8.7132 C.ar    1  UNL1        0.0859
     14 C          14.4014   35.5679    8.5345 C.ar    1  UNL1        0.0178
     15 C          15.4876   34.7167    8.7488 C.ar    1  UNL1        0.0015
     16 C          16.7175   35.2438    9.1452 C.ar    1  UNL1        0.0032
     17 C          16.8592   36.6208    9.3281 C.ar    1  UNL1        0.0382
     18 C          16.6211   39.4386   10.3772 C.3     1  UNL1        0.2525
     19 O          15.8990   38.8661    9.2955 O.3     1  UNL1       -0.4702
     20 C           8.9326   40.4446    8.3676 C.3     1  UNL1        0.1093
     21 C           8.7977   41.7430    7.5565 C.3     1  UNL1        0.0418
     22 C           9.8233   41.8461    6.4262 C.3     1  UNL1        0.0741
     23 C          10.8348   39.7330    6.7793 C.3     1  UNL1        0.0741
     24 C           9.5969   39.3005    7.5874 C.3     1  UNL1        0.0418
     25 N          11.0599   41.1800    6.8143 N.3     1  UNL1       -0.2725
     26 C          12.0507   41.4899    5.7963 C.3     1  UNL1        0.0724
     27 C          12.9778   42.5903    6.2848 C.3     1  UNL1        0.0220
     28 C          13.9890   42.0252    7.2758 C.3     1  UNL1        0.0278
     29 C          15.3258   42.7064    7.2327 C.ar    1  UNL1       -0.0221
     30 C          16.3480   42.2109    8.0494 C.ar    1  UNL1       -0.0043
     31 C          17.6115   42.8102    8.0443 C.ar    1  UNL1       -0.0003
     32 C          17.8600   43.9115    7.2204 C.ar    1  UNL1       -0.0000
     33 C          16.8457   44.4128    6.4004 C.ar    1  UNL1       -0.0003
     34 C          15.5828   43.8127    6.4050 C.ar    1  UNL1       -0.0043
@<TRIPOS>BOND
     1    18    19    1
     2    12    19    1
     3    13     8    1
     4    13    14   ar
     5     6     9   am
     6     2     3   ar
     7    20     5    1
     8    20    21    1
     9    21    22    1
    10    22    25    1
    11    26    25    1
    12    26    27    1
    13    27    28    1
    14    28    29    1
    15    30    31   ar
    16    32    33   ar
    17    34    29   ar
    18    23    25    1
    19    23    24    1
    20    24    20    1
    21    15    16   ar
    22    17    12   ar
    23     8     6   am
    24     9     1    1
    25     5     4   ar
    26     5     1   ar
    27    12    13   ar
    28     6     7    2
    29     1     2   ar
    30     3     4   ar
    31    29    30   ar
    32    31    32   ar
    33    33    34   ar
    34    14    15   ar
    35    16    17   ar
    36     8    10    1
    37     9    11    1
@<TRIPOS>MOLECULE
MolPort-005-073-458 12835630 CSSS00159491738 MCULE-1852119178 PubChem-25544661 ZINC000012835630
 34 37 0 0 0
SMALL
GASTEIGER

@<TRIPOS>ATOM
      1 C           9.8779   41.2692   10.7724 C.ar    1  UNL1        0.1337
      2 C           9.3498   40.7634   11.9456 C.ar    1  UNL1        0.0566
      3 C           8.3975   41.7109   12.3049 C.ar    1  UNL1        0.1230
      4 N           8.3775   42.7046   11.3922 N.ar    1  UNL1       -0.1666
      5 N           9.2769   42.4264   10.4654 N.ar    1  UNL1       -0.2394
      6 C          12.1500   40.1565   10.4625 C.2     1  UNL1        0.3093
      7 O          12.4340   40.2276   11.6889 O.2     1  UNL1       -0.2521
      8 N          13.0607   39.5556    9.5329 N.am    1  UNL1       -0.2656
      9 N          10.9083   40.6740    9.9724 N.am    1  UNL1       -0.2536
     10 H          12.7618   39.5036    8.5963 H       1  UNL1        0.1565
     11 H          10.7482   40.6163    9.0027 H       1  UNL1        0.1578
     12 C          14.5046   37.6379   10.0245 C.ar    1  UNL1        0.1521
     13 C          14.3624   39.0214    9.8208 C.ar    1  UNL1        0.0859
     14 C          15.4945   39.8486    9.8927 C.ar    1  UNL1        0.0178
     15 C          16.7533   39.3099   10.1675 C.ar    1  UNL1        0.0015
     16 C          16.8931   37.9366   10.3728 C.ar    1  UNL1        0.0032
     17 C          15.7745   37.1039   10.3016 C.ar    1  UNL1        0.0382
     18 C          13.4565   35.4128    9.7314 C.3     1  UNL1        0.2525
     19 O          13.3751   36.8146    9.9500 O.3     1  UNL1       -0.4702
     20 C           9.5721   43.2649    9.3063 C.3     1  UNL1        0.1093
     21 C           9.3500   42.4956    7.9945 C.3     1  UNL1        0.0418
     22 C           8.0306   42.8576    7.3101 C.3     1  UNL1        0.0741
     23 C           7.3522   44.5030    8.8739 C.3     1  UNL1        0.0741
     24 C           8.8060   44.5943    9.3747 C.3     1  UNL1        0.0418
     25 N           7.0257   43.1904    8.3115 N.3     1  UNL1       -0.2725
     26 C           5.7553   43.3198    7.6164 C.3     1  UNL1        0.0724
     27 C           4.8894   44.3665    8.2973 C.3     1  UNL1        0.0220
     28 C           3.5663   43.7501    8.7371 C.3     1  UNL1        0.0278
     29 C           3.7223   42.5346    9.6037 C.ar    1  UNL1       -0.0221
     30 C           4.6381   42.5877   10.6600 C.ar    1  UNL1       -0.0043
     31 C           4.8189   41.4819   11.4967 C.ar    1  UNL1       -0.0003
     32 C           4.0828   40.3136   11.2806 C.ar    1  UNL1       -0.0000
     33 C           3.1649   40.2514   10.2289 C.ar    1  UNL1       -0.0003
     34 C           2.9837   41.3577    9.3931 C.ar    1  UNL1       -0.0043
@<TRIPOS>BOND
     1    18    19    1
     2    12    19    1
     3    13     8    1
     4    13    14   ar
     5     6     9   am
     6     2     3   ar
     7    20     5    1
     8    20    21    1
     9    21    22    1
    10    22    25    1
    11    26    25    1
    12    26    27    1
    13    27    28    1
    14    28    29    1
    15    30    31   ar
    16    32    33   ar
    17    34    29   ar
    18    23    25    1
    19    23    24    1
    20    24    20    1
    21    15    16   ar
    22    17    12   ar
    23     8     6   am
    24     9     1    1
    25     5     4   ar
    26     5     1   ar
    27    12    13   ar
    28     6     7    2
    29     1     2   ar
    30     3     4   ar
    31    29    30   ar
    32    31    32   ar
    33    33    34   ar
    34    14    15   ar
    35    16    17   ar
    36     8    10    1
    37     9    11    1
@<TRIPOS>MOLECULE
MolPort-005-073-458 12835630 CSSS00159491738 MCULE-1852119178 PubChem-25544661 ZINC000012835630
 34 37 0 0 0
SMALL
GASTEIGER

@<TRIPOS>ATOM
      1 C          10.4077   41.2977   10.7414 C.ar    1  UNL1        0.1337
      2 C           9.9541   40.7412   11.9228 C.ar    1  UNL1        0.0566
      3 C           8.7458   41.3932   12.1429 C.ar    1  UNL1        0.1230
      4 N           8.5159   42.2739   11.1466 N.ar    1  UNL1       -0.1666
      5 N           9.5282   42.2067   10.3003 N.ar    1  UNL1       -0.2394
      6 C          12.7537   40.3072   10.6318 C.2     1  UNL1        0.3093
      7 O          12.7499   39.9758   11.8484 O.2     1  UNL1       -0.2521
      8 N          13.8843   40.0224    9.7981 N.am    1  UNL1       -0.2656
      9 N          11.6253   40.9747   10.0565 N.am    1  UNL1       -0.2536
     10 H          13.8073   40.2790    8.8508 H       1  UNL1        0.1565
     11 H          11.6910   41.2343    9.1091 H       1  UNL1        0.1578
     12 C          16.3310   39.9198    9.7100 C.ar    1  UNL1        0.1521
     13 C          15.1175   39.4031   10.1961 C.ar    1  UNL1        0.0859
     14 C          15.1368   38.3016   11.0664 C.ar    1  UNL1        0.0178
     15 C          16.3463   37.7166   11.4473 C.ar    1  UNL1        0.0015
     16 C          17.5505   38.2282   10.9617 C.ar    1  UNL1        0.0032
     17 C          17.5437   39.3247   10.0972 C.ar    1  UNL1        0.0382
     18 C          17.3517   41.9847    8.7992 C.3     1  UNL1        0.2525
     19 O          16.3098   41.0195    8.8444 O.3     1  UNL1       -0.4702
     20 C           9.6633   43.0141    9.0905 C.3     1  UNL1        0.1093
     21 C           9.3966   42.1747    7.8311 C.3     1  UNL1        0.0418
     22 C           8.0023   42.4080    7.2464 C.3     1  UNL1        0.0741
     23 C           7.3266   44.0644    8.7997 C.3     1  UNL1        0.0741
     24 C           8.8045   44.2847    9.1736 C.3     1  UNL1        0.0418
     25 N           7.0585   42.7082    8.3153 N.3     1  UNL1       -0.2725
     26 C           5.7301   42.7130    7.7244 C.3     1  UNL1        0.0724
     27 C           5.0571   44.0551    7.9584 C.3     1  UNL1        0.0220
     28 C           3.8794   43.8941    8.9129 C.3     1  UNL1        0.0278
     29 C           3.9125   42.6210    9.7072 C.ar    1  UNL1       -0.0221
     30 C           3.0942   41.5631    9.2969 C.ar    1  UNL1       -0.0043
     31 C           3.0902   40.3560   10.0030 C.ar    1  UNL1       -0.0003
     32 C           3.9066   40.2004   11.1267 C.ar    1  UNL1       -0.0000
     33 C           4.7282   41.2509   11.5436 C.ar    1  UNL1       -0.0003
     34 C           4.7327   42.4573   10.8367 C.ar    1  UNL1       -0.0043
@<TRIPOS>BOND
     1    18    19    1
     2    12    19    1
     3    13     8    1
     4    13    14   ar
     5     6     9   am
     6     2     3   ar
     7    20     5    1
     8    20    21    1
     9    21    22    1
    10    22    25    1
    11    26    25    1
    12    26    27    1
    13    27    28    1
    14    28    29    1
    15    30    31   ar
    16    32    33   ar
    17    34    29   ar
    18    23    25    1
    19    23    24    1
    20    24    20    1
    21    15    16   ar
    22    17    12   ar
    23     8     6   am
    24     9     1    1
    25     5     4   ar
    26     5     1   ar
    27    12    13   ar
    28     6     7    2
    29     1     2   ar
    30     3     4   ar
    31    29    30   ar
    32    31    32   ar
    33    33    34   ar
    34    14    15   ar
    35    16    17   ar
    36     8    10    1
    37     9    11    1
@<TRIPOS>MOLECULE
MolPort-005-073-458 12835630 CSSS00159491738 MCULE-1852119178 PubChem-25544661 ZINC000012835630
 34 37 0 0 0
SMALL
GASTEIGER

@<TRIPOS>ATOM
      1 C          11.5893   39.7067    8.8110 C.ar    1  UNL1        0.1337
      2 C          11.6235   38.9550    9.9707 C.ar    1  UNL1        0.0566
      3 C          10.8027   37.8718    9.6767 C.ar    1  UNL1        0.1230
      4 N          10.3235   37.9917    8.4209 N.ar    1  UNL1       -0.1666
      5 N          10.8083   39.1063    7.9033 N.ar    1  UNL1       -0.2394
      6 C          13.6774   41.0828    8.3182 C.2     1  UNL1        0.3093
      7 O          14.4324   40.0728    8.3195 O.2     1  UNL1       -0.2521
      8 N          14.2037   42.3909    8.0604 N.am    1  UNL1       -0.2656
      9 N          12.2755   40.9430    8.5731 N.am    1  UNL1       -0.2536
     10 H          13.5537   43.1301    8.0420 H       1  UNL1        0.1565
     11 H          11.7364   41.7666    8.5861 H       1  UNL1        0.1578
     12 C          15.8743   43.8130    6.9692 C.ar    1  UNL1        0.1521
     13 C          15.5772   42.7392    7.8262 C.ar    1  UNL1        0.0859
     14 C          16.6262   42.0379    8.4417 C.ar    1  UNL1        0.0178
     15 C          17.9556   42.3954    8.2066 C.ar    1  UNL1        0.0015
     16 C          18.2499   43.4596    7.3532 C.ar    1  UNL1        0.0032
     17 C          17.2147   44.1657    6.7372 C.ar    1  UNL1        0.0382
     18 C          14.0082   43.9439    5.3458 C.3     1  UNL1        0.2525
     19 O          14.8271   44.5125    6.3585 O.3     1  UNL1       -0.4702
     20 C          10.5159   39.6026    6.5609 C.3     1  UNL1        0.1093
     21 C           9.3360   38.8433    5.9339 C.3     1  UNL1        0.0418
     22 C           8.0273   39.6339    5.9843 C.3     1  UNL1        0.0741
     23 C           8.9239   41.5864    6.9826 C.3     1  UNL1        0.0741
     24 C          10.3328   41.1275    6.5617 C.3     1  UNL1        0.0418
     25 N           7.9965   40.4695    7.1777 N.3     1  UNL1       -0.2725
     26 C           6.6578   41.0286    7.2743 C.3     1  UNL1        0.0724
     27 C           6.7234   42.5466    7.2866 C.3     1  UNL1        0.0220
     28 C           5.6105   43.1145    8.1601 C.3     1  UNL1        0.0278
     29 C           5.1932   42.2042    9.2782 C.ar    1  UNL1       -0.0221
     30 C           3.9195   41.6281    9.2226 C.ar    1  UNL1       -0.0043
     31 C           3.4846   40.7720   10.2393 C.ar    1  UNL1       -0.0003
     32 C           4.3235   40.4872   11.3203 C.ar    1  UNL1       -0.0000
     33 C           5.5978   41.0570   11.3841 C.ar    1  UNL1       -0.0003
     34 C           6.0327   41.9120   10.3668 C.ar    1  UNL1       -0.0043
@<TRIPOS>BOND
     1    18    19    1
     2    12    19    1
     3    13     8    1
     4    13    14   ar
     5     6     9   am
     6     2     3   ar
     7    20     5    1
     8    20    21    1
     9    21    22    1
    10    22    25    1
    11    26    25    1
    12    26    27    1
    13    27    28    1
    14    28    29    1
    15    30    31   ar
    16    32    33   ar
    17    34    29   ar
    18    23    25    1
    19    23    24    1
    20    24    20    1
    21    15    16   ar
    22    17    12   ar
    23     8     6   am
    24     9     1    1
    25     5     4   ar
    26     5     1   ar
    27    12    13   ar
    28     6     7    2
    29     1     2   ar
    30     3     4   ar
    31    29    30   ar
    32    31    32   ar
    33    33    34   ar
    34    14    15   ar
    35    16    17   ar
    36     8    10    1
    37     9    11    1
@<TRIPOS>MOLECULE
MolPort-005-073-458 12835630 CSSS00159491738 MCULE-1852119178 PubChem-25544661 ZINC000012835630
 34 37 0 0 0
SMALL
GASTEIGER

@<TRIPOS>ATOM
      1 C          10.5616   40.0855    5.3414 C.ar    1  UNL1        0.1337
      2 C          10.9050   39.8799    4.0182 C.ar    1  UNL1        0.0566
      3 C           9.7643   39.2983    3.4759 C.ar    1  UNL1        0.1230
      4 N           8.8183   39.1760    4.4305 N.ar    1  UNL1       -0.1666
      5 N           9.3104   39.6586    5.5576 N.ar    1  UNL1       -0.2394
      6 C          12.1233   39.9466    7.3509 C.2     1  UNL1        0.3093
      7 O          12.0577   38.6887    7.4076 O.2     1  UNL1       -0.2521
      8 N          12.9359   40.6806    8.2759 N.am    1  UNL1       -0.2656
      9 N          11.3872   40.6692    6.3581 N.am    1  UNL1       -0.2536
     10 H          12.9672   41.6570    8.1544 H       1  UNL1        0.1565
     11 H          11.4536   41.6513    6.3748 H       1  UNL1        0.1578
     12 C          13.0488   39.7094   10.5228 C.ar    1  UNL1        0.1521
     13 C          13.7094   40.1447    9.3609 C.ar    1  UNL1        0.0859
     14 C          15.1070   40.0375    9.2816 C.ar    1  UNL1        0.0178
     15 C          15.8416   39.5077   10.3446 C.ar    1  UNL1        0.0015
     16 C          15.1853   39.0787   11.4990 C.ar    1  UNL1        0.0032
     17 C          13.7954   39.1786   11.5884 C.ar    1  UNL1        0.0382
     18 C          10.9991   40.8538   11.3130 C.3     1  UNL1        0.2525
     19 O          11.6552   39.8150   10.5991 O.3     1  UNL1       -0.4702
     20 C           8.5996   39.6969    6.8331 C.3     1  UNL1        0.1093
     21 C           9.0914   40.8615    7.7071 C.3     1  UNL1        0.0418
     22 C           8.1376   42.0574    7.6942 C.3     1  UNL1        0.0741
     23 C           6.4861   41.0768    6.3070 C.3     1  UNL1        0.0741
     24 C           7.0786   39.6899    6.6203 C.3     1  UNL1        0.0418
     25 N           7.4764   42.1524    6.3992 N.3     1  UNL1       -0.2725
     26 C           6.7515   43.4126    6.3801 C.3     1  UNL1        0.0724
     27 C           6.6773   43.9959    7.7813 C.3     1  UNL1        0.0220
     28 C           5.2233   44.1275    8.2203 C.3     1  UNL1        0.0278
     29 C           4.7432   42.9915    9.0757 C.ar    1  UNL1       -0.0221
     30 C           5.6881   42.2804    9.8233 C.ar    1  UNL1       -0.0043
     31 C           5.2907   41.2145   10.6367 C.ar    1  UNL1       -0.0003
     32 C           3.9424   40.8529   10.7066 C.ar    1  UNL1       -0.0000
     33 C           2.9912   41.5579    9.9645 C.ar    1  UNL1       -0.0003
     34 C           3.3888   42.6243    9.1522 C.ar    1  UNL1       -0.0043
@<TRIPOS>BOND
     1    18    19    1
     2    12    19    1
     3    13     8    1
     4    13    14   ar
     5     6     9   am
     6     2     3   ar
     7    20     5    1
     8    20    21    1
     9    21    22    1
    10    22    25    1
    11    26    25    1
    12    26    27    1
    13    27    28    1
    14    28    29    1
    15    30    31   ar
    16    32    33   ar
    17    34    29   ar
    18    23    25    1
    19    23    24    1
    20    24    20    1
    21    15    16   ar
    22    17    12   ar
    23     8     6   am
    24     9     1    1
    25     5     4   ar
    26     5     1   ar
    27    12    13   ar
    28     6     7    2
    29     1     2   ar
    30     3     4   ar
    31    29    30   ar
    32    31    32   ar
    33    33    34   ar
    34    14    15   ar
    35    16    17   ar
    36     8    10    1
    37     9    11    1
@<TRIPOS>MOLECULE
MolPort-005-073-458 12835630 CSSS00159491738 MCULE-1852119178 PubChem-25544661 ZINC000012835630
 34 37 0 0 0
SMALL
GASTEIGER

@<TRIPOS>ATOM
      1 C          12.3642   37.3180   10.3421 C.ar    1  UNL1        0.1337
      2 C          12.0490   36.0815    9.8104 C.ar    1  UNL1        0.0566
      3 C          13.1224   35.2839   10.1915 C.ar    1  UNL1        0.1230
      4 N          14.0047   36.0175   10.9017 N.ar    1  UNL1       -0.1666
      5 N          13.5348   37.2491   10.9898 N.ar    1  UNL1       -0.2394
      6 C          10.6175   38.7998    9.2240 C.2     1  UNL1        0.3093
      7 O          10.4144   37.9796    8.2881 O.2     1  UNL1       -0.2521
      8 N           9.8880   40.0319    9.2901 N.am    1  UNL1       -0.2656
      9 N          11.5818   38.5156   10.2434 N.am    1  UNL1       -0.2536
     10 H          10.0725   40.6106   10.0649 H       1  UNL1        0.1565
     11 H          11.7197   39.2014   10.9361 H       1  UNL1        0.1578
     12 C           7.8499   41.3038    8.8077 C.ar    1  UNL1        0.1521
     13 C           8.9170   40.5130    8.3476 C.ar    1  UNL1        0.0859
     14 C           9.0168   40.2193    6.9783 C.ar    1  UNL1        0.0178
     15 C           8.0663   40.7015    6.0759 C.ar    1  UNL1        0.0015
     16 C           7.0054   41.4839    6.5339 C.ar    1  UNL1        0.0032
     17 C           6.8971   41.7842    7.8933 C.ar    1  UNL1        0.0382
     18 C           6.5420   41.4707   10.9045 C.3     1  UNL1        0.2525
     19 O           7.7535   41.5975   10.1728 O.3     1  UNL1       -0.4702
     20 C          14.2041   38.3541   11.6714 C.3     1  UNL1        0.1093
     21 C          15.6501   38.5163   11.1765 C.3     1  UNL1        0.0418
     22 C          15.8123   39.6698   10.1849 C.3     1  UNL1        0.0741
     23 C          13.5640   40.4135   10.2582 C.3     1  UNL1        0.0741
     24 C          13.3763   39.6445   11.5796 C.3     1  UNL1        0.0418
     25 N          14.5948   39.8254    9.3994 N.3     1  UNL1       -0.2725
     26 C          14.8840   40.7869    8.3478 C.3     1  UNL1        0.0724
     27 C          13.5906   41.3140    7.7493 C.3     1  UNL1        0.0220
     28 C          13.8517   42.6098    6.9898 C.3     1  UNL1        0.0278
     29 C          15.2982   43.0081    6.9500 C.ar    1  UNL1       -0.0221
     30 C          15.7505   43.7506    5.8538 C.ar    1  UNL1       -0.0043
     31 C          17.0890   44.1469    5.7709 C.ar    1  UNL1       -0.0003
     32 C          17.9849   43.8014    6.7865 C.ar    1  UNL1       -0.0000
     33 C          17.5424   43.0610    7.8858 C.ar    1  UNL1       -0.0003
     34 C          16.2037   42.6658    7.9688 C.ar    1  UNL1       -0.0043
@<TRIPOS>BOND
     1    18    19    1
     2    12    19    1
     3    13     8    1
     4    13    14   ar
     5     6     9   am
     6     2     3   ar
     7    20     5    1
     8    20    21    1
     9    21    22    1
    10    22    25    1
    11    26    25    1
    12    26    27    1
    13    27    28    1
    14    28    29    1
    15    30    31   ar
    16    32    33   ar
    17    34    29   ar
    18    23    25    1
    19    23    24    1
    20    24    20    1
    21    15    16   ar
    22    17    12   ar
    23     8     6   am
    24     9     1    1
    25     5     4   ar
    26     5     1   ar
    27    12    13   ar
    28     6     7    2
    29     1     2   ar
    30     3     4   ar
    31    29    30   ar
    32    31    32   ar
    33    33    34   ar
    34    14    15   ar
    35    16    17   ar
    36     8    10    1
    37     9    11    1
@<TRIPOS>MOLECULE
MolPort-005-073-458 12835630 CSSS00159491738 MCULE-1852119178 PubChem-25544661 ZINC000012835630
 34 37 0 0 0
SMALL
GASTEIGER

@<TRIPOS>ATOM
      1 C          13.0167   37.3321    9.7565 C.ar    1  UNL1        0.1337
      2 C          12.9772   36.0614    9.2133 C.ar    1  UNL1        0.0566
      3 C          13.7608   35.3137   10.0853 C.ar    1  UNL1        0.1230
      4 N          14.2247   36.1067   11.0738 N.ar    1  UNL1       -0.1666
      5 N          13.7659   37.3283   10.8670 N.ar    1  UNL1       -0.2394
      6 C          10.9911   38.5839    8.8476 C.2     1  UNL1        0.3093
      7 O          10.2468   37.5676    8.9019 O.2     1  UNL1       -0.2521
      8 N          10.4804   39.8428    8.3905 N.am    1  UNL1       -0.2656
      9 N          12.3644   38.5015    9.2440 N.am    1  UNL1       -0.2536
     10 H          11.1067   40.6022    8.4047 H       1  UNL1        0.1565
     11 H          12.9075   39.3181    9.1572 H       1  UNL1        0.1578
     12 C           8.7741   39.6528    6.6422 C.ar    1  UNL1        0.1521
     13 C           9.1532   40.1156    7.9142 C.ar    1  UNL1        0.0859
     14 C           8.2258   40.8241    8.6945 C.ar    1  UNL1        0.0178
     15 C           6.9375   41.0741    8.2168 C.ar    1  UNL1        0.0015
     16 C           6.5628   40.6171    6.9526 C.ar    1  UNL1        0.0032
     17 C           7.4762   39.9095    6.1685 C.ar    1  UNL1        0.0382
     18 C          10.3887   39.5253    4.7682 C.3     1  UNL1        0.2525
     19 O           9.6993   38.9445    5.8667 O.3     1  UNL1       -0.4702
     20 C          14.0531   38.4848   11.7117 C.3     1  UNL1        0.1093
     21 C          15.4741   38.4083   12.2921 C.3     1  UNL1        0.0418
     22 C          16.4654   39.3114   11.5559 C.3     1  UNL1        0.0741
     23 C          14.9057   40.2560   10.0432 C.3     1  UNL1        0.0741
     24 C          13.7637   39.7982   10.9699 C.3     1  UNL1        0.0418
     25 N          16.0977   39.4112   10.1494 N.3     1  UNL1       -0.2725
     26 C          17.1820   40.1032    9.4716 C.3     1  UNL1        0.0724
     27 C          16.7463   41.5059    9.0822 C.3     1  UNL1        0.0220
     28 C          15.5287   41.4438    8.1670 C.3     1  UNL1        0.0278
     29 C          15.3699   42.6492    7.2868 C.ar    1  UNL1       -0.0221
     30 C          14.1928   42.7739    6.5410 C.ar    1  UNL1       -0.0043
     31 C          13.9968   43.8793    5.7071 C.ar    1  UNL1       -0.0003
     32 C          14.9799   44.8683    5.6142 C.ar    1  UNL1       -0.0000
     33 C          16.1584   44.7531    6.3560 C.ar    1  UNL1       -0.0003
     34 C          16.3536   43.6483    7.1905 C.ar    1  UNL1       -0.0043
@<TRIPOS>BOND
     1    18    19    1
     2    12    19    1
     3    13     8    1
     4    13    14   ar
     5     6     9   am
     6     2     3   ar
     7    20     5    1
     8    20    21    1
     9    21    22    1
    10    22    25    1
    11    26    25    1
    12    26    27    1
    13    27    28    1
    14    28    29    1
    15    30    31   ar
    16    32    33   ar
    17    34    29   ar
    18    23    25    1
    19    23    24    1
    20    24    20    1
    21    15    16   ar
    22    17    12   ar
    23     8     6   am
    24     9     1    1
    25     5     4   ar
    26     5     1   ar
    27    12    13   ar
    28     6     7    2
    29     1     2   ar
    30     3     4   ar
    31    29    30   ar
    32    31    32   ar
    33    33    34   ar
    34    14    15   ar
    35    16    17   ar
    36     8    10    1
    37     9    11    1
@<TRIPOS>MOLECULE
MolPort-005-073-458 12835630 CSSS00159491738 MCULE-1852119178 PubChem-25544661 ZINC000012835630
 34 37 0 0 0
SMALL
GASTEIGER

@<TRIPOS>ATOM
      1 C          13.2778   36.9445    9.8854 C.ar    1  UNL1        0.1337
      2 C          13.4685   35.8204    9.1037 C.ar    1  UNL1        0.0566
      3 C          14.8096   35.5123    9.3043 C.ar    1  UNL1        0.1230
      4 N          15.3598   36.4064   10.1522 N.ar    1  UNL1       -0.1666
      5 N          14.4223   37.2693   10.5011 N.ar    1  UNL1       -0.2394
      6 C          11.5134   38.6096    9.1035 C.2     1  UNL1        0.3093
      7 O          12.1311   38.8748    8.0366 O.2     1  UNL1       -0.2521
      8 N          10.2563   39.2325    9.3968 N.am    1  UNL1       -0.2656
      9 N          12.0557   37.6773   10.0451 N.am    1  UNL1       -0.2536
     10 H           9.8127   38.9554   10.2308 H       1  UNL1        0.1565
     11 H          11.5456   37.5264   10.8735 H       1  UNL1        0.1578
     12 C           9.4272   41.5206    9.1109 C.ar    1  UNL1        0.1521
     13 C           9.5741   40.2175    8.6048 C.ar    1  UNL1        0.0859
     14 C           9.0613   39.9095    7.3347 C.ar    1  UNL1        0.0178
     15 C           8.4064   40.8824    6.5765 C.ar    1  UNL1        0.0015
     16 C           8.2582   42.1751    7.0809 C.ar    1  UNL1        0.0032
     17 C           8.7661   42.4935    8.3421 C.ar    1  UNL1        0.0382
     18 C          10.3963   40.8321   11.2839 C.3     1  UNL1        0.2525
     19 O           9.9413   41.8263   10.3763 O.3     1  UNL1       -0.4702
     20 C          14.6204   38.4032   11.4005 C.3     1  UNL1        0.1093
     21 C          16.0617   38.4434   11.9325 C.3     1  UNL1        0.0418
     22 C          16.9292   39.4818   11.2188 C.3     1  UNL1        0.0741
     23 C          15.2285   40.3386    9.8093 C.3     1  UNL1        0.0741
     24 C          14.1728   39.7169   10.7428 C.3     1  UNL1        0.0418
     25 N          16.5032   39.6172    9.8318 N.3     1  UNL1       -0.2725
     26 C          17.4867   40.4524    9.1616 C.3     1  UNL1        0.0724
     27 C          17.0687   41.9118    9.2298 C.3     1  UNL1        0.0220
     28 C          17.4663   42.6336    7.9472 C.3     1  UNL1        0.0278
     29 C          16.3022   43.1811    7.1739 C.ar    1  UNL1       -0.0221
     30 C          16.4427   44.4318    6.5630 C.ar    1  UNL1       -0.0043
     31 C          15.3875   44.9844    5.8303 C.ar    1  UNL1       -0.0003
     32 C          14.1827   44.2872    5.7047 C.ar    1  UNL1       -0.0000
     33 C          14.0333   43.0369    6.3104 C.ar    1  UNL1       -0.0003
     34 C          15.0889   42.4842    7.0420 C.ar    1  UNL1       -0.0043
@<TRIPOS>BOND
     1    18    19    1
     2    12    19    1
     3    13     8    1
     4    13    14   ar
     5     6     9   am
     6     2     3   ar
     7    20     5    1
     8    20    21    1
     9    21    22    1
    10    22    25    1
    11    26    25    1
    12    26    27    1
    13    27    28    1
    14    28    29    1
    15    30    31   ar
    16    32    33   ar
    17    34    29   ar
    18    23    25    1
    19    23    24    1
    20    24    20    1
    21    15    16   ar
    22    17    12   ar
    23     8     6   am
    24     9     1    1
    25     5     4   ar
    26     5     1   ar
    27    12    13   ar
    28     6     7    2
    29     1     2   ar
    30     3     4   ar
    31    29    30   ar
    32    31    32   ar
    33    33    34   ar
    34    14    15   ar
    35    16    17   ar
    36     8    10    1
    37     9    11    1
