@<TRIPOS>MOLECULE
MolPort-002-790-894 CSC047813045 CSSS00047813045 LN01163820 MCULE-2071410921 PubChem-17161563
 22 23 0 0 0
SMALL
GASTEIGER

@<TRIPOS>ATOM
      1 C          10.5086   39.0388    7.8829 C.ar    1  UNL1        0.1396
      2 C           9.2912   39.0208    7.1841 C.ar    1  UNL1        0.0370
      3 C           9.1107   39.8371    6.0652 C.ar    1  UNL1        0.0044
      4 C          10.1445   40.6745    5.6389 C.ar    1  UNL1        0.0149
      5 C          11.3658   40.7014    6.3286 C.ar    1  UNL1        0.0533
      6 C          11.5378   39.8806    7.4484 C.ar    1  UNL1        0.0515
      7 C          12.9924   42.6560    6.6521 C.2     1  UNL1        0.2305
      8 O          12.5314   42.9881    7.7763 O.2     1  UNL1       -0.2744
      9 N          12.4490   41.5486    5.9220 N.am    1  UNL1       -0.2836
     10 H          12.8623   41.3488    5.0511 H       1  UNL1        0.1549
     11 C          14.1474   43.4079    6.0848 C.3     1  UNL1        0.1116
     12 C          15.3516   43.2435    6.9483 C.ar    1  UNL1       -0.0131
     13 C          15.4999   42.0942    7.7334 C.ar    1  UNL1       -0.0038
     14 C          16.6387   41.9315    8.5284 C.ar    1  UNL1       -0.0003
     15 C          17.6321   42.9156    8.5367 C.ar    1  UNL1       -0.0000
     16 C          17.4880   44.0619    7.7490 C.ar    1  UNL1       -0.0003
     17 C          16.3495   44.2251    6.9538 C.ar    1  UNL1       -0.0038
     18 O          10.7204   38.2352    9.0070 O.3     1  UNL1       -0.4791
     19 C          11.9334   38.2563    9.7505 C.3     1  UNL1        0.1660
     20 C          13.0849   37.8825    8.8407 C.3     1  UNL1        0.0472
     21 C          13.5552   39.7329   10.9275 C.3     1  UNL1        0.0038
     22 C          12.1707   39.6450   10.3152 C.3     1  UNL1        0.0435
@<TRIPOS>BOND
     1    21    22    1
     2    19    22    1
     3    19    20    1
     4    19    18    1
     5     1    18    1
     6     2     3   ar
     7     4     5   ar
     8     5     9    1
     9    11     7    1
    10    11    12    1
    11    13    14   ar
    12    15    16   ar
    13    17    12   ar
    14     6     1   ar
    15     9     7   am
    16     1     2   ar
    17     3     4   ar
    18     5     6   ar
    19     7     8    2
    20    12    13   ar
    21    14    15   ar
    22    16    17   ar
    23     9    10    1
@<TRIPOS>MOLECULE
MolPort-002-790-894 CSC047813045 CSSS00047813045 LN01163820 MCULE-2071410921 PubChem-17161563
 22 23 0 0 0
SMALL
GASTEIGER

@<TRIPOS>ATOM
      1 C           8.4033   40.9518    7.1353 C.ar    1  UNL1        0.1396
      2 C           8.4311   39.5938    6.7808 C.ar    1  UNL1        0.0370
      3 C           9.5347   39.0653    6.1073 C.ar    1  UNL1        0.0044
      4 C          10.6154   39.8900    5.7851 C.ar    1  UNL1        0.0149
      5 C          10.5998   41.2486    6.1340 C.ar    1  UNL1        0.0533
      6 C           9.4901   41.7695    6.8083 C.ar    1  UNL1        0.0515
      7 C          12.9081   42.2797    6.5578 C.2     1  UNL1        0.2305
      8 O          13.1278   41.6130    7.6036 O.2     1  UNL1       -0.2744
      9 N          11.6893   42.1260    5.8190 N.am    1  UNL1       -0.2836
     10 H          11.5900   42.6805    5.0115 H       1  UNL1        0.1549
     11 C          13.9496   43.2222    6.0597 C.3     1  UNL1        0.1116
     12 C          15.1864   43.1169    6.8855 C.ar    1  UNL1       -0.0131
     13 C          16.1419   44.1392    6.8507 C.ar    1  UNL1       -0.0038
     14 C          17.2926   44.0491    7.6401 C.ar    1  UNL1       -0.0003
     15 C          17.4877   42.9389    8.4676 C.ar    1  UNL1       -0.0000
     16 C          16.5317   41.9193    8.5074 C.ar    1  UNL1       -0.0003
     17 C          15.3808   42.0088    7.7184 C.ar    1  UNL1       -0.0038
     18 O           7.3134   41.5115    7.8084 O.3     1  UNL1       -0.4791
     19 C           6.9560   42.8834    7.6869 C.3     1  UNL1        0.1660
     20 C           6.5917   43.1803    6.2473 C.3     1  UNL1        0.0472
     21 C           4.9554   44.3315    7.9975 C.3     1  UNL1        0.0038
     22 C           5.7667   43.1897    8.5788 C.3     1  UNL1        0.0435
@<TRIPOS>BOND
     1    21    22    1
     2    19    22    1
     3    19    20    1
     4    19    18    1
     5     1    18    1
     6     2     3   ar
     7     4     5   ar
     8     5     9    1
     9    11     7    1
    10    11    12    1
    11    13    14   ar
    12    15    16   ar
    13    17    12   ar
    14     6     1   ar
    15     9     7   am
    16     1     2   ar
    17     3     4   ar
    18     5     6   ar
    19     7     8    2
    20    12    13   ar
    21    14    15   ar
    22    16    17   ar
    23     9    10    1
@<TRIPOS>MOLECULE
MolPort-002-790-894 CSC047813045 CSSS00047813045 LN01163820 MCULE-2071410921 PubChem-17161563
 22 23 0 0 0
SMALL
GASTEIGER

@<TRIPOS>ATOM
      1 C           6.6347   42.0876    9.6214 C.ar    1  UNL1        0.1396
      2 C           6.5583   43.2585    8.8510 C.ar    1  UNL1        0.0370
      3 C           7.4877   43.4937    7.8352 C.ar    1  UNL1        0.0044
      4 C           8.4970   42.5611    7.5840 C.ar    1  UNL1        0.0149
      5 C           8.5839   41.3871    8.3468 C.ar    1  UNL1        0.0533
      6 C           7.6489   41.1598    9.3624 C.ar    1  UNL1        0.0515
      7 C          10.9283   40.6479    7.6196 C.2     1  UNL1        0.2305
      8 O          11.3156   41.8099    7.3255 O.2     1  UNL1       -0.2744
      9 N           9.6064   40.4077    8.1194 N.am    1  UNL1       -0.2836
     10 H           9.3767   39.4735    8.3283 H       1  UNL1        0.1549
     11 C          11.8737   39.5046    7.4772 C.3     1  UNL1        0.1116
     12 C          12.6009   39.2666    8.7567 C.ar    1  UNL1       -0.0131
     13 C          12.3943   40.1168    9.8493 C.ar    1  UNL1       -0.0038
     14 C          13.0620   39.8818   11.0553 C.ar    1  UNL1       -0.0003
     15 C          13.9339   38.7948   11.1716 C.ar    1  UNL1       -0.0000
     16 C          14.1374   37.9415   10.0826 C.ar    1  UNL1       -0.0003
     17 C          13.4701   38.1759    8.8765 C.ar    1  UNL1       -0.0038
     18 O           5.7210   41.8233   10.6458 O.3     1  UNL1       -0.4791
     19 C           4.5653   41.0151   10.4566 C.3     1  UNL1        0.1660
     20 C           4.3365   40.1713   11.6932 C.3     1  UNL1        0.0472
     21 C           2.4956   41.3172    9.1073 C.3     1  UNL1        0.0038
     22 C           3.3516   41.8946   10.2178 C.3     1  UNL1        0.0435
@<TRIPOS>BOND
     1    21    22    1
     2    19    22    1
     3    19    20    1
     4    19    18    1
     5     1    18    1
     6     2     3   ar
     7     4     5   ar
     8     5     9    1
     9    11     7    1
    10    11    12    1
    11    13    14   ar
    12    15    16   ar
    13    17    12   ar
    14     6     1   ar
    15     9     7   am
    16     1     2   ar
    17     3     4   ar
    18     5     6   ar
    19     7     8    2
    20    12    13   ar
    21    14    15   ar
    22    16    17   ar
    23     9    10    1
@<TRIPOS>MOLECULE
MolPort-002-790-894 CSC047813045 CSSS00047813045 LN01163820 MCULE-2071410921 PubChem-17161563
 22 23 0 0 0
SMALL
GASTEIGER

@<TRIPOS>ATOM
      1 C           6.4043   41.3400    9.9976 C.ar    1  UNL1        0.1396
      2 C           6.4066   41.5214   11.3897 C.ar    1  UNL1        0.0370
      3 C           7.6146   41.6263   12.0830 C.ar    1  UNL1        0.0044
      4 C           8.8252   41.5508   11.3899 C.ar    1  UNL1        0.0149
      5 C           8.8362   41.3699    9.9989 C.ar    1  UNL1        0.0533
      6 C           7.6215   41.2657    9.3125 C.ar    1  UNL1        0.0515
      7 C          11.1075   42.2624    9.2141 C.2     1  UNL1        0.2305
      8 O          11.0303   43.3330    9.8732 O.2     1  UNL1       -0.2744
      9 N          10.0584   41.2863    9.2536 N.am    1  UNL1       -0.2836
     10 H          10.1908   40.4742    8.7130 H       1  UNL1        0.1549
     11 C          12.3282   41.9895    8.4038 C.3     1  UNL1        0.1116
     12 C          12.9322   40.6836    8.7941 C.ar    1  UNL1       -0.0131
     13 C          13.6304   40.5669   10.0017 C.ar    1  UNL1       -0.0038
     14 C          14.1803   39.3371   10.3765 C.ar    1  UNL1       -0.0003
     15 C          14.0297   38.2218    9.5466 C.ar    1  UNL1       -0.0000
     16 C          13.3280   38.3354    8.3424 C.ar    1  UNL1       -0.0003
     17 C          12.7780   39.5649    7.9670 C.ar    1  UNL1       -0.0038
     18 O           5.2128   41.2302    9.2748 O.3     1  UNL1       -0.4791
     19 C           4.0674   42.0270    9.5536 C.3     1  UNL1        0.1660
     20 C           2.8174   41.2449    9.2084 C.3     1  UNL1        0.0472
     21 C           2.6700   42.1059   11.6119 C.3     1  UNL1        0.0038
     22 C           4.0384   42.3951   11.0257 C.3     1  UNL1        0.0435
@<TRIPOS>BOND
     1    21    22    1
     2    19    22    1
     3    19    20    1
     4    19    18    1
     5     1    18    1
     6     2     3   ar
     7     4     5   ar
     8     5     9    1
     9    11     7    1
    10    11    12    1
    11    13    14   ar
    12    15    16   ar
    13    17    12   ar
    14     6     1   ar
    15     9     7   am
    16     1     2   ar
    17     3     4   ar
    18     5     6   ar
    19     7     8    2
    20    12    13   ar
    21    14    15   ar
    22    16    17   ar
    23     9    10    1
@<TRIPOS>MOLECULE
MolPort-002-790-894 CSC047813045 CSSS00047813045 LN01163820 MCULE-2071410921 PubChem-17161563
 22 23 0 0 0
SMALL
GASTEIGER

@<TRIPOS>ATOM
      1 C           7.5491   41.7970   10.6249 C.ar    1  UNL1        0.1396
      2 C           7.9056   41.7127   11.9801 C.ar    1  UNL1        0.0370
      3 C           9.1839   41.2845   12.3455 C.ar    1  UNL1        0.0044
      4 C          10.1118   40.9390   11.3600 C.ar    1  UNL1        0.0149
      5 C           9.7679   41.0192   10.0024 C.ar    1  UNL1        0.0533
      6 C           8.4851   41.4488    9.6454 C.ar    1  UNL1        0.0515
      7 C          11.7356   41.4987    8.4311 C.2     1  UNL1        0.2305
      8 O          11.9313   42.6650    8.8648 O.2     1  UNL1       -0.2744
      9 N          10.6926   40.6717    8.9630 N.am    1  UNL1       -0.2836
     10 H          10.6016   39.7718    8.5743 H       1  UNL1        0.1549
     11 C          12.6272   40.9553    7.3676 C.3     1  UNL1        0.1116
     12 C          13.7377   41.9078    7.0809 C.ar    1  UNL1       -0.0131
     13 C          14.9323   41.8311    7.8066 C.ar    1  UNL1       -0.0038
     14 C          15.9808   42.7122    7.5242 C.ar    1  UNL1       -0.0003
     15 C          15.8379   43.6683    6.5139 C.ar    1  UNL1       -0.0000
     16 C          14.6472   43.7428    5.7845 C.ar    1  UNL1       -0.0003
     17 C          13.5984   42.8621    6.0664 C.ar    1  UNL1       -0.0038
     18 O           6.2779   42.2203   10.2263 O.3     1  UNL1       -0.4791
     19 C           5.1758   41.3296   10.0966 C.3     1  UNL1        0.1660
     20 C           4.6773   40.9459   11.4742 C.3     1  UNL1        0.0472
     21 C           2.8291   41.1089    9.2966 C.3     1  UNL1        0.0038
     22 C           4.0541   42.0023    9.3265 C.3     1  UNL1        0.0435
@<TRIPOS>BOND
     1    21    22    1
     2    19    22    1
     3    19    20    1
     4    19    18    1
     5     1    18    1
     6     2     3   ar
     7     4     5   ar
     8     5     9    1
     9    11     7    1
    10    11    12    1
    11    13    14   ar
    12    15    16   ar
    13    17    12   ar
    14     6     1   ar
    15     9     7   am
    16     1     2   ar
    17     3     4   ar
    18     5     6   ar
    19     7     8    2
    20    12    13   ar
    21    14    15   ar
    22    16    17   ar
    23     9    10    1
@<TRIPOS>MOLECULE
MolPort-002-790-894 CSC047813045 CSSS00047813045 LN01163820 MCULE-2071410921 PubChem-17161563
 22 23 0 0 0
SMALL
GASTEIGER

@<TRIPOS>ATOM
      1 C          11.5079   38.6147    9.0452 C.ar    1  UNL1        0.1396
      2 C          10.2803   38.1187    8.5786 C.ar    1  UNL1        0.0370
      3 C           9.5993   38.7789    7.5532 C.ar    1  UNL1        0.0044
      4 C          10.1407   39.9366    6.9892 C.ar    1  UNL1        0.0149
      5 C          11.3667   40.4421    7.4465 C.ar    1  UNL1        0.0533
      6 C          12.0419   39.7745    8.4741 C.ar    1  UNL1        0.0515
      7 C          13.3353   42.0043    6.9412 C.2     1  UNL1        0.2305
      8 O          14.1926   41.2752    7.5070 O.2     1  UNL1       -0.2744
      9 N          11.9529   41.6281    6.8933 N.am    1  UNL1       -0.2836
     10 H          11.3426   42.2483    6.4328 H       1  UNL1        0.1549
     11 C          13.7717   43.2662    6.2793 C.3     1  UNL1        0.1116
     12 C          15.2210   43.5117    6.5282 C.ar    1  UNL1       -0.0131
     13 C          16.0761   43.8052    5.4595 C.ar    1  UNL1       -0.0038
     14 C          17.4317   44.0544    5.6956 C.ar    1  UNL1       -0.0003
     15 C          17.9332   44.0142    7.0002 C.ar    1  UNL1       -0.0000
     16 C          17.0792   43.7263    8.0695 C.ar    1  UNL1       -0.0003
     17 C          15.7237   43.4770    7.8341 C.ar    1  UNL1       -0.0038
     18 O          12.2134   37.9783   10.0705 O.3     1  UNL1       -0.4791
     19 C          13.6109   38.1577   10.2693 C.3     1  UNL1        0.1660
     20 C          13.8644   38.5596   11.7072 C.3     1  UNL1        0.0472
     21 C          15.7796   37.1551    9.5714 C.3     1  UNL1        0.0038
     22 C          14.3466   36.8637    9.9729 C.3     1  UNL1        0.0435
@<TRIPOS>BOND
     1    21    22    1
     2    19    22    1
     3    19    20    1
     4    19    18    1
     5     1    18    1
     6     2     3   ar
     7     4     5   ar
     8     5     9    1
     9    11     7    1
    10    11    12    1
    11    13    14   ar
    12    15    16   ar
    13    17    12   ar
    14     6     1   ar
    15     9     7   am
    16     1     2   ar
    17     3     4   ar
    18     5     6   ar
    19     7     8    2
    20    12    13   ar
    21    14    15   ar
    22    16    17   ar
    23     9    10    1
@<TRIPOS>MOLECULE
MolPort-002-790-894 CSC047813045 CSSS00047813045 LN01163820 MCULE-2071410921 PubChem-17161563
 22 23 0 0 0
SMALL
GASTEIGER

@<TRIPOS>ATOM
      1 C           4.5469   42.8204    9.2715 C.ar    1  UNL1        0.1396
      2 C           3.4765   41.9305    9.4537 C.ar    1  UNL1        0.0370
      3 C           3.6114   40.8342   10.3086 C.ar    1  UNL1        0.0044
      4 C           4.8149   40.6216   10.9853 C.ar    1  UNL1        0.0149
      5 C           5.8918   41.5036   10.8118 C.ar    1  UNL1        0.0533
      6 C           5.7480   42.5990    9.9534 C.ar    1  UNL1        0.0515
      7 C           8.4524   41.4572   10.9226 C.2     1  UNL1        0.2305
      8 O           8.6131   41.7755    9.7145 O.2     1  UNL1       -0.2744
      9 N           7.1425   41.3173   11.4879 N.am    1  UNL1       -0.2836
     10 H           7.0969   41.0673   12.4390 H       1  UNL1        0.1549
     11 C           9.6472   41.2550   11.7902 C.3     1  UNL1        0.1116
     12 C          10.8695   41.0637   10.9584 C.ar    1  UNL1       -0.0131
     13 C          11.1223   41.9159    9.8771 C.ar    1  UNL1       -0.0038
     14 C          12.2787   41.7482    9.1089 C.ar    1  UNL1       -0.0003
     15 C          13.1853   40.7310    9.4229 C.ar    1  UNL1       -0.0000
     16 C          12.9369   39.8822   10.5060 C.ar    1  UNL1       -0.0003
     17 C          11.7808   40.0493   11.2745 C.ar    1  UNL1       -0.0038
     18 O           4.4445   43.9259    8.4222 O.3     1  UNL1       -0.4791
     19 C           5.5210   44.3709    7.6050 C.3     1  UNL1        0.1660
     20 C           6.7067   44.7142    8.4823 C.3     1  UNL1        0.0472
     21 C           7.4235   43.0954    6.6307 C.3     1  UNL1        0.0038
     22 C           5.9180   43.2771    6.6305 C.3     1  UNL1        0.0435
@<TRIPOS>BOND
     1    21    22    1
     2    19    22    1
     3    19    20    1
     4    19    18    1
     5     1    18    1
     6     2     3   ar
     7     4     5   ar
     8     5     9    1
     9    11     7    1
    10    11    12    1
    11    13    14   ar
    12    15    16   ar
    13    17    12   ar
    14     6     1   ar
    15     9     7   am
    16     1     2   ar
    17     3     4   ar
    18     5     6   ar
    19     7     8    2
    20    12    13   ar
    21    14    15   ar
    22    16    17   ar
    23     9    10    1
@<TRIPOS>MOLECULE
MolPort-002-790-894 CSC047813045 CSSS00047813045 LN01163820 MCULE-2071410921 PubChem-17161563
 22 23 0 0 0
SMALL
GASTEIGER

@<TRIPOS>ATOM
      1 C           7.0709   40.9416    8.1445 C.ar    1  UNL1        0.1396
      2 C           6.6171   40.1798    7.0562 C.ar    1  UNL1        0.0370
      3 C           7.5224   39.4489    6.2834 C.ar    1  UNL1        0.0044
      4 C           8.8843   39.4752    6.5935 C.ar    1  UNL1        0.0149
      5 C           9.3502   40.2325    7.6785 C.ar    1  UNL1        0.0533
      6 C           8.4364   40.9617    8.4471 C.ar    1  UNL1        0.0515
      7 C          11.8257   40.6599    7.1684 C.2     1  UNL1        0.2305
      8 O          11.6275   40.9931    5.9699 O.2     1  UNL1       -0.2744
      9 N          10.7403   40.2852    8.0265 N.am    1  UNL1       -0.2836
     10 H          10.9735   40.0385    8.9506 H       1  UNL1        0.1549
     11 C          13.2120   40.6882    7.7150 C.3     1  UNL1        0.1116
     12 C          13.9454   41.8862    7.2153 C.ar    1  UNL1       -0.0131
     13 C          15.2481   42.1455    7.6570 C.ar    1  UNL1       -0.0038
     14 C          15.9428   43.2586    7.1734 C.ar    1  UNL1       -0.0003
     15 C          15.3376   44.1114    6.2451 C.ar    1  UNL1       -0.0000
     16 C          14.0382   43.8508    5.7989 C.ar    1  UNL1       -0.0003
     17 C          13.3431   42.7380    6.2821 C.ar    1  UNL1       -0.0038
     18 O           6.1910   41.6849    8.9365 O.3     1  UNL1       -0.4791
     19 C           5.1982   41.0815    9.7579 C.3     1  UNL1        0.1660
     20 C           5.3809   41.5462   11.1876 C.3     1  UNL1        0.0472
     21 C           2.9850   42.0005   10.4309 C.3     1  UNL1        0.0038
     22 C           3.8151   41.4778    9.2745 C.3     1  UNL1        0.0435
@<TRIPOS>BOND
     1    21    22    1
     2    19    22    1
     3    19    20    1
     4    19    18    1
     5     1    18    1
     6     2     3   ar
     7     4     5   ar
     8     5     9    1
     9    11     7    1
    10    11    12    1
    11    13    14   ar
    12    15    16   ar
    13    17    12   ar
    14     6     1   ar
    15     9     7   am
    16     1     2   ar
    17     3     4   ar
    18     5     6   ar
    19     7     8    2
    20    12    13   ar
    21    14    15   ar
    22    16    17   ar
    23     9    10    1
@<TRIPOS>MOLECULE
MolPort-002-790-894 CSC047813045 CSSS00047813045 LN01163820 MCULE-2071410921 PubChem-17161563
 22 23 0 0 0
SMALL
GASTEIGER

@<TRIPOS>ATOM
      1 C          11.5677   39.7300   10.1009 C.ar    1  UNL1        0.1396
      2 C          10.5141   40.3078   10.8268 C.ar    1  UNL1        0.0370
      3 C          10.2096   41.6615   10.6670 C.ar    1  UNL1        0.0044
      4 C          10.9551   42.4442    9.7820 C.ar    1  UNL1        0.0149
      5 C          12.0101   41.8786    9.0508 C.ar    1  UNL1        0.0533
      6 C          12.3083   40.5218    9.2172 C.ar    1  UNL1        0.0515
      7 C          12.9400   42.4266    6.7256 C.2     1  UNL1        0.2305
      8 O          12.3445   41.4772    6.1506 O.2     1  UNL1       -0.2744
      9 N          12.7984   42.6502    8.1344 N.am    1  UNL1       -0.2836
     10 H          13.2936   43.4126    8.5121 H       1  UNL1        0.1549
     11 C          13.7815   43.3562    5.9201 C.3     1  UNL1        0.1116
     12 C          15.1905   43.3390    6.4070 C.ar    1  UNL1       -0.0131
     13 C          15.5513   42.5168    7.4808 C.ar    1  UNL1       -0.0038
     14 C          16.8770   42.4865    7.9248 C.ar    1  UNL1       -0.0003
     15 C          17.8439   43.2751    7.2937 C.ar    1  UNL1       -0.0000
     16 C          17.4862   44.0931    6.2175 C.ar    1  UNL1       -0.0003
     17 C          16.1608   44.1238    5.7731 C.ar    1  UNL1       -0.0038
     18 O          11.8985   38.3789   10.2391 O.3     1  UNL1       -0.4791
     19 C          12.9249   37.9234   11.1130 C.3     1  UNL1        0.1660
     20 C          13.8251   36.9597   10.3686 C.3     1  UNL1        0.0472
     21 C          15.2032   38.7009   11.7458 C.3     1  UNL1        0.0038
     22 C          13.7474   39.1008   11.6039 C.3     1  UNL1        0.0435
@<TRIPOS>BOND
     1    21    22    1
     2    19    22    1
     3    19    20    1
     4    19    18    1
     5     1    18    1
     6     2     3   ar
     7     4     5   ar
     8     5     9    1
     9    11     7    1
    10    11    12    1
    11    13    14   ar
    12    15    16   ar
    13    17    12   ar
    14     6     1   ar
    15     9     7   am
    16     1     2   ar
    17     3     4   ar
    18     5     6   ar
    19     7     8    2
    20    12    13   ar
    21    14    15   ar
    22    16    17   ar
    23     9    10    1
@<TRIPOS>MOLECULE
MolPort-002-790-894 CSC047813045 CSSS00047813045 LN01163820 MCULE-2071410921 PubChem-17161563
 22 23 0 0 0
SMALL
GASTEIGER

@<TRIPOS>ATOM
      1 C          10.9230   40.3784    7.8967 C.ar    1  UNL1        0.1396
      2 C          11.4089   40.6013    6.5986 C.ar    1  UNL1        0.0370
      3 C          10.6163   41.2577    5.6543 C.ar    1  UNL1        0.0044
      4 C           9.3356   41.6946    6.0015 C.ar    1  UNL1        0.0149
      5 C           8.8387   41.4781    7.2954 C.ar    1  UNL1        0.0533
      6 C           9.6394   40.8196    8.2349 C.ar    1  UNL1        0.0515
      7 C           7.2010   43.1036    8.4120 C.2     1  UNL1        0.2305
      8 O           8.0939   43.9127    8.7791 O.2     1  UNL1       -0.2744
      9 N           7.5292   41.9106    7.6881 N.am    1  UNL1       -0.2836
     10 H           6.7775   41.3277    7.4343 H       1  UNL1        0.1549
     11 C           5.7723   43.4090    8.7062 C.3     1  UNL1        0.1116
     12 C           5.1684   42.3289    9.5376 C.ar    1  UNL1       -0.0131
     13 C           5.8595   41.8290   10.6475 C.ar    1  UNL1       -0.0038
     14 C           5.2843   40.8294   11.4384 C.ar    1  UNL1       -0.0003
     15 C           4.0165   40.3311   11.1229 C.ar    1  UNL1       -0.0000
     16 C           3.3226   40.8330   10.0175 C.ar    1  UNL1       -0.0003
     17 C           3.8971   41.8325    9.2264 C.ar    1  UNL1       -0.0038
     18 O          11.6905   39.7236    8.8642 O.3     1  UNL1       -0.4791
     19 C          12.7149   40.3764    9.6052 C.3     1  UNL1        0.1660
     20 C          12.6628   39.9138   11.0463 C.3     1  UNL1        0.0472
     21 C          14.6662   41.2553    8.3340 C.3     1  UNL1        0.0038
     22 C          14.0736   40.0390    9.0188 C.3     1  UNL1        0.0435
@<TRIPOS>BOND
     1    21    22    1
     2    19    22    1
     3    19    20    1
     4    19    18    1
     5     1    18    1
     6     2     3   ar
     7     4     5   ar
     8     5     9    1
     9    11     7    1
    10    11    12    1
    11    13    14   ar
    12    15    16   ar
    13    17    12   ar
    14     6     1   ar
    15     9     7   am
    16     1     2   ar
    17     3     4   ar
    18     5     6   ar
    19     7     8    2
    20    12    13   ar
    21    14    15   ar
    22    16    17   ar
    23     9    10    1
