@<TRIPOS>MOLECULE
MolPort-006-579-667 ChemDiv-V018-1028 MCULE-7774224366 PubChem-46040631 ZINC000037543390 ZINC37543390
 33 36 0 0 0
SMALL
GASTEIGER

@<TRIPOS>ATOM
      1 C          11.4689   40.5781   10.2764 C.ar    1  UNL1        0.0565
      2 C          12.1303   39.5112   10.9082 C.ar    1  UNL1        0.0150
      3 C          13.3554   39.0454   10.4251 C.ar    1  UNL1        0.0026
      4 C          13.9376   39.6445    9.3066 C.ar    1  UNL1        0.0148
      5 C          13.3001   40.7158    8.6657 C.ar    1  UNL1        0.0516
      6 C          12.0726   41.1725    9.1551 C.ar    1  UNL1        0.0296
      7 C           8.1388   42.6837   11.9241 C.3     1  UNL1        0.0971
      8 C           8.6227   41.4702   12.6969 C.3     1  UNL1        0.0435
      9 C          10.0467   41.1184   12.2626 C.3     1  UNL1        0.1015
     10 C           9.1768   41.5959    9.9374 C.2     1  UNL1        0.3112
     11 N           8.1048   42.3604   10.5056 N.am    1  UNL1       -0.2596
     12 N          10.2149   41.0721   10.7997 N.am    1  UNL1       -0.2430
     13 O           9.1824   41.3506    8.6997 O.2     1  UNL1       -0.2520
     14 C           6.9220   42.6970    9.7233 C.3     1  UNL1        0.1217
     15 C           2.2572   41.0643    8.9725 C.3     1  UNL1        0.0310
     16 C           3.4933   41.0888    9.7960 C.ar    1  UNL1       -0.0221
     17 C           3.5578   40.3526   10.9838 C.ar    1  UNL1       -0.0043
     18 C           4.7218   40.3754   11.7585 C.ar    1  UNL1       -0.0006
     19 C           5.8221   41.1326   11.3447 C.ar    1  UNL1       -0.0026
     20 C           5.7602   41.8663   10.1538 C.ar    1  UNL1       -0.0026
     21 C           4.5925   41.8482    9.3830 C.ar    1  UNL1       -0.0069
     22 C          13.1771   42.2100    6.5887 C.2     1  UNL1        0.2707
     23 N          13.8613   41.3528    7.5106 N.am    1  UNL1       -0.2808
     24 O          11.9399   42.4217    6.6889 O.2     1  UNL1       -0.2707
     25 H          14.8147   41.1838    7.3324 H       1  UNL1        0.1550
     26 C          13.9499   42.8620    5.4946 C.3     1  UNL1        0.2897
     27 O          14.6807   43.9738    6.0030 O.3     1  UNL1       -0.4656
     28 C          15.9027   43.8423    6.6728 C.ar    1  UNL1        0.1393
     29 C          16.0105   43.1208    7.8743 C.ar    1  UNL1        0.0369
     30 C          17.2452   43.0083    8.5204 C.ar    1  UNL1        0.0031
     31 C          18.3791   43.6165    7.9725 C.ar    1  UNL1        0.0002
     32 C          18.2763   44.3398    6.7805 C.ar    1  UNL1        0.0031
     33 C          17.0414   44.4527    6.1335 C.ar    1  UNL1        0.0369
@<TRIPOS>BOND
     1    15    16    1
     2    17    18   ar
     3    19    20   ar
     4    14    20    1
     5    14    11    1
     6     7    11    1
     7     7     8    1
     8     8     9    1
     9     9    12    1
    10    10    11   am
    11     2     3   ar
    12     4     5   ar
    13     5    23    1
    14    26    22    1
    15    26    27    1
    16    28    27    1
    17    29    30   ar
    18    31    32   ar
    19    33    28   ar
    20     6     1   ar
    21    21    16   ar
    22    12    10   am
    23    12     1    1
    24    23    22   am
    25    16    17   ar
    26    18    19   ar
    27    20    21   ar
    28    10    13    2
    29     1     2   ar
    30     3     4   ar
    31     5     6   ar
    32    22    24    2
    33    28    29   ar
    34    30    31   ar
    35    32    33   ar
    36    23    25    1
@<TRIPOS>MOLECULE
MolPort-006-579-667 ChemDiv-V018-1028 MCULE-7774224366 PubChem-46040631 ZINC000037543390 ZINC37543390
 33 36 0 0 0
SMALL
GASTEIGER

@<TRIPOS>ATOM
      1 C          11.5782   41.0825    8.4569 C.ar    1  UNL1        0.0565
      2 C          12.2122   40.3437    9.4704 C.ar    1  UNL1        0.0150
      3 C          13.6052   40.2549    9.5230 C.ar    1  UNL1        0.0026
      4 C          14.3827   40.9087    8.5652 C.ar    1  UNL1        0.0148
      5 C          13.7721   41.6584    7.5504 C.ar    1  UNL1        0.0516
      6 C          12.3770   41.7384    7.5047 C.ar    1  UNL1        0.0296
      7 C           7.3294   40.6539    8.4132 C.3     1  UNL1        0.0971
      8 C           7.9597   41.2820    7.1835 C.3     1  UNL1        0.0435
      9 C           9.4524   40.9498    7.1443 C.3     1  UNL1        0.1015
     10 C           9.3607   41.4407    9.6226 C.2     1  UNL1        0.3112
     11 N           7.9435   41.2222    9.6039 N.am    1  UNL1       -0.2596
     12 N          10.1369   41.1921    8.4263 N.am    1  UNL1       -0.2430
     13 O           9.9108   41.8877   10.6664 O.2     1  UNL1       -0.2520
     14 C           7.0951   41.6853   10.6948 C.3     1  UNL1        0.1217
     15 C           3.7607   44.4651    8.2161 C.3     1  UNL1        0.0310
     16 C           4.0830   43.2607    9.0237 C.ar    1  UNL1       -0.0221
     17 C           3.0756   42.3464    9.3497 C.ar    1  UNL1       -0.0043
     18 C           3.3794   41.2124   10.1095 C.ar    1  UNL1       -0.0006
     19 C           4.6908   40.9913   10.5417 C.ar    1  UNL1       -0.0026
     20 C           5.7006   41.9035   10.2123 C.ar    1  UNL1       -0.0026
     21 C           5.3940   43.0414    9.4578 C.ar    1  UNL1       -0.0069
     22 C          14.1683   43.5430    5.8612 C.2     1  UNL1        0.2707
     23 N          14.5345   42.3379    6.5444 N.am    1  UNL1       -0.2808
     24 O          13.0491   44.0875    6.0521 O.2     1  UNL1       -0.2707
     25 H          15.3984   41.9353    6.2977 H       1  UNL1        0.1550
     26 C          15.1351   44.1595    4.9101 C.3     1  UNL1        0.2897
     27 O          16.2688   44.6573    5.6141 O.3     1  UNL1       -0.4656
     28 C          16.9147   43.9385    6.6266 C.ar    1  UNL1        0.1393
     29 C          17.8235   42.9071    6.3333 C.ar    1  UNL1        0.0369
     30 C          18.4521   42.2065    7.3670 C.ar    1  UNL1        0.0031
     31 C          18.1762   42.5296    8.6994 C.ar    1  UNL1        0.0002
     32 C          17.2690   43.5509    8.9967 C.ar    1  UNL1        0.0031
     33 C          16.6399   44.2524    7.9630 C.ar    1  UNL1        0.0369
@<TRIPOS>BOND
     1    15    16    1
     2    17    18   ar
     3    19    20   ar
     4    14    20    1
     5    14    11    1
     6     7    11    1
     7     7     8    1
     8     8     9    1
     9     9    12    1
    10    10    11   am
    11     2     3   ar
    12     4     5   ar
    13     5    23    1
    14    26    22    1
    15    26    27    1
    16    28    27    1
    17    29    30   ar
    18    31    32   ar
    19    33    28   ar
    20     6     1   ar
    21    21    16   ar
    22    12    10   am
    23    12     1    1
    24    23    22   am
    25    16    17   ar
    26    18    19   ar
    27    20    21   ar
    28    10    13    2
    29     1     2   ar
    30     3     4   ar
    31     5     6   ar
    32    22    24    2
    33    28    29   ar
    34    30    31   ar
    35    32    33   ar
    36    23    25    1
@<TRIPOS>MOLECULE
MolPort-006-579-667 ChemDiv-V018-1028 MCULE-7774224366 PubChem-46040631 ZINC000037543390 ZINC37543390
 33 36 0 0 0
SMALL
GASTEIGER

@<TRIPOS>ATOM
      1 C          10.2607   41.4643   10.5245 C.ar    1  UNL1        0.0565
      2 C          10.0792   40.9524   11.8206 C.ar    1  UNL1        0.0150
      3 C           8.8879   41.1753   12.5151 C.ar    1  UNL1        0.0026
      4 C           7.8600   41.9088   11.9197 C.ar    1  UNL1        0.0148
      5 C           8.0156   42.4215   10.6244 C.ar    1  UNL1        0.0516
      6 C           9.2131   42.1957    9.9390 C.ar    1  UNL1        0.0296
      7 C          13.5766   40.0235    8.2514 C.3     1  UNL1        0.0971
      8 C          13.8517   40.3768    9.7017 C.3     1  UNL1        0.0435
      9 C          12.5347   40.4221   10.4786 C.3     1  UNL1        0.1015
     10 C          11.6655   41.6128    8.4248 C.2     1  UNL1        0.3112
     11 N          12.7458   41.0614    7.6596 N.am    1  UNL1       -0.2596
     12 N          11.4860   41.2053    9.8022 N.am    1  UNL1       -0.2430
     13 O          10.9090   42.4785    7.9051 O.2     1  UNL1       -0.2520
     14 C          13.1103   41.6164    6.3621 C.3     1  UNL1        0.1217
     15 C          17.4370   43.0046    8.4458 C.3     1  UNL1        0.0310
     16 C          16.2978   43.2919    7.5369 C.ar    1  UNL1       -0.0221
     17 C          16.2445   44.5057    6.8434 C.ar    1  UNL1       -0.0043
     18 C          15.1721   44.7757    5.9874 C.ar    1  UNL1       -0.0006
     19 C          14.1540   43.8314    5.8232 C.ar    1  UNL1       -0.0026
     20 C          14.2085   42.6145    6.5135 C.ar    1  UNL1       -0.0026
     21 C          15.2785   42.3484    7.3750 C.ar    1  UNL1       -0.0069
     22 C           6.4448   42.9614    8.6742 C.2     1  UNL1        0.2707
     23 N           6.9872   43.1857    9.9814 N.am    1  UNL1       -0.2808
     24 O           6.9100   42.0680    7.9187 O.2     1  UNL1       -0.2707
     25 H           6.6156   43.9423   10.4900 H       1  UNL1        0.1550
     26 C           5.3077   43.8030    8.2071 C.3     1  UNL1        0.2897
     27 O           4.0707   43.1444    8.4621 O.3     1  UNL1       -0.4656
     28 C           3.8567   42.3275    9.5783 C.ar    1  UNL1        0.1393
     29 C           3.4075   42.8543   10.8016 C.ar    1  UNL1        0.0369
     30 C           3.2040   42.0124   11.8991 C.ar    1  UNL1        0.0031
     31 C           3.4494   40.6405   11.7831 C.ar    1  UNL1        0.0002
     32 C           3.9015   40.1123   10.5702 C.ar    1  UNL1        0.0031
     33 C           4.1050   40.9538    9.4717 C.ar    1  UNL1        0.0369
@<TRIPOS>BOND
     1    15    16    1
     2    17    18   ar
     3    19    20   ar
     4    14    20    1
     5    14    11    1
     6     7    11    1
     7     7     8    1
     8     8     9    1
     9     9    12    1
    10    10    11   am
    11     2     3   ar
    12     4     5   ar
    13     5    23    1
    14    26    22    1
    15    26    27    1
    16    28    27    1
    17    29    30   ar
    18    31    32   ar
    19    33    28   ar
    20     6     1   ar
    21    21    16   ar
    22    12    10   am
    23    12     1    1
    24    23    22   am
    25    16    17   ar
    26    18    19   ar
    27    20    21   ar
    28    10    13    2
    29     1     2   ar
    30     3     4   ar
    31     5     6   ar
    32    22    24    2
    33    28    29   ar
    34    30    31   ar
    35    32    33   ar
    36    23    25    1
@<TRIPOS>MOLECULE
MolPort-006-579-667 ChemDiv-V018-1028 MCULE-7774224366 PubChem-46040631 ZINC000037543390 ZINC37543390
 33 36 0 0 0
SMALL
GASTEIGER

@<TRIPOS>ATOM
      1 C          11.5810   40.7068   10.3428 C.ar    1  UNL1        0.0565
      2 C          12.4332   39.8326   11.0388 C.ar    1  UNL1        0.0150
      3 C          13.7523   39.6400   10.6217 C.ar    1  UNL1        0.0026
      4 C          14.2381   40.3238    9.5057 C.ar    1  UNL1        0.0148
      5 C          13.4086   41.2074    8.8013 C.ar    1  UNL1        0.0516
      6 C          12.0888   41.3906    9.2250 C.ar    1  UNL1        0.0296
      7 C           7.7393   42.0730   11.6125 C.3     1  UNL1        0.0971
      8 C           8.5458   41.2814   12.6258 C.3     1  UNL1        0.0435
      9 C          10.0191   41.2699   12.2144 C.3     1  UNL1        0.1015
     10 C           9.0978   40.8906    9.8908 C.2     1  UNL1        0.3112
     11 N           7.8345   41.4198   10.3156 N.am    1  UNL1       -0.2596
     12 N          10.2256   40.9214   10.7978 N.am    1  UNL1       -0.2430
     13 O           9.2036   40.3651    8.7486 O.2     1  UNL1       -0.2520
     14 C           6.6226   41.1928    9.5383 C.3     1  UNL1        0.1217
     15 C           3.4653   44.8453    8.2422 C.3     1  UNL1        0.0310
     16 C           4.7670   44.1507    8.0702 C.ar    1  UNL1       -0.0221
     17 C           5.6825   44.6058    7.1154 C.ar    1  UNL1       -0.0043
     18 C           6.9082   43.9520    6.9541 C.ar    1  UNL1       -0.0006
     19 C           7.2194   42.8444    7.7489 C.ar    1  UNL1       -0.0026
     20 C           6.3057   42.3907    8.7078 C.ar    1  UNL1       -0.0026
     21 C           5.0767   43.0415    8.8635 C.ar    1  UNL1       -0.0069
     22 C          13.0633   42.4011    6.5613 C.2     1  UNL1        0.2707
     23 N          13.8671   41.9224    7.6465 N.am    1  UNL1       -0.2808
     24 O          11.8308   42.1505    6.5015 O.2     1  UNL1       -0.2707
     25 H          14.8335   42.1030    7.5937 H       1  UNL1        0.1550
     26 C          13.7033   43.2120    5.4878 C.3     1  UNL1        0.2897
     27 O          14.4738   44.2648    6.0594 O.3     1  UNL1       -0.4656
     28 C          15.8081   44.1080    6.4520 C.ar    1  UNL1        0.1393
     29 C          16.8439   43.9851    5.5096 C.ar    1  UNL1        0.0369
     30 C          18.1670   43.8285    5.9332 C.ar    1  UNL1        0.0031
     31 C          18.4643   43.7917    7.2992 C.ar    1  UNL1        0.0002
     32 C          17.4372   43.9080    8.2406 C.ar    1  UNL1        0.0031
     33 C          16.1132   44.0649    7.8176 C.ar    1  UNL1        0.0369
@<TRIPOS>BOND
     1    15    16    1
     2    17    18   ar
     3    19    20   ar
     4    14    20    1
     5    14    11    1
     6     7    11    1
     7     7     8    1
     8     8     9    1
     9     9    12    1
    10    10    11   am
    11     2     3   ar
    12     4     5   ar
    13     5    23    1
    14    26    22    1
    15    26    27    1
    16    28    27    1
    17    29    30   ar
    18    31    32   ar
    19    33    28   ar
    20     6     1   ar
    21    21    16   ar
    22    12    10   am
    23    12     1    1
    24    23    22   am
    25    16    17   ar
    26    18    19   ar
    27    20    21   ar
    28    10    13    2
    29     1     2   ar
    30     3     4   ar
    31     5     6   ar
    32    22    24    2
    33    28    29   ar
    34    30    31   ar
    35    32    33   ar
    36    23    25    1
@<TRIPOS>MOLECULE
MolPort-006-579-667 ChemDiv-V018-1028 MCULE-7774224366 PubChem-46040631 ZINC000037543390 ZINC37543390
 33 36 0 0 0
SMALL
GASTEIGER

@<TRIPOS>ATOM
      1 C           9.6946   41.4967    9.2589 C.ar    1  UNL1        0.0565
      2 C           9.8034   41.2616   10.6401 C.ar    1  UNL1        0.0150
      3 C           8.7045   41.4428   11.4831 C.ar    1  UNL1        0.0026
      4 C           7.4804   41.8564   10.9544 C.ar    1  UNL1        0.0148
      5 C           7.3464   42.0885    9.5785 C.ar    1  UNL1        0.0516
      6 C           8.4532   41.9075    8.7438 C.ar    1  UNL1        0.0296
      7 C          13.0372   41.6048    6.6030 C.3     1  UNL1        0.0971
      8 C          11.8199   40.8319    6.1290 C.3     1  UNL1        0.0435
      9 C          10.5927   41.2600    6.9358 C.3     1  UNL1        0.1015
     10 C          12.1792   41.1743    8.9023 C.2     1  UNL1        0.3112
     11 N          13.2885   41.2840    8.0001 N.am    1  UNL1       -0.2596
     12 N          10.8295   41.2799    8.3898 N.am    1  UNL1       -0.2430
     13 O          12.3880   40.9442   10.1251 O.2     1  UNL1       -0.2520
     14 C          14.6411   40.9448    8.4240 C.3     1  UNL1        0.1217
     15 C          15.6159   45.1651    5.9283 C.3     1  UNL1        0.0310
     16 C          16.0671   44.0656    6.8195 C.ar    1  UNL1       -0.0221
     17 C          17.3876   44.0353    7.2803 C.ar    1  UNL1       -0.0043
     18 C          17.8120   43.0004    8.1197 C.ar    1  UNL1       -0.0006
     19 C          16.9156   41.9968    8.5000 C.ar    1  UNL1       -0.0026
     20 C          15.5926   42.0285    8.0428 C.ar    1  UNL1       -0.0026
     21 C          15.1710   43.0608    7.1974 C.ar    1  UNL1       -0.0069
     22 C           5.7340   43.8688    8.6882 C.2     1  UNL1        0.2707
     23 N           6.1090   42.5211    8.9981 N.am    1  UNL1       -0.2808
     24 O           6.4784   44.8391    8.9881 O.2     1  UNL1       -0.2707
     25 H           5.4492   41.8203    8.7913 H       1  UNL1        0.1550
     26 C           4.4389   44.1200    7.9961 C.3     1  UNL1        0.2897
     27 O           3.3524   43.7110    8.8212 O.3     1  UNL1       -0.4656
     28 C           3.4165   42.6030    9.6741 C.ar    1  UNL1        0.1393
     29 C           3.3747   41.2883    9.1786 C.ar    1  UNL1        0.0369
     30 C           3.4397   40.2020   10.0562 C.ar    1  UNL1        0.0031
     31 C           3.5449   40.4210   11.4334 C.ar    1  UNL1        0.0002
     32 C           3.5813   41.7267   11.9320 C.ar    1  UNL1        0.0031
     33 C           3.5165   42.8140   11.0545 C.ar    1  UNL1        0.0369
@<TRIPOS>BOND
     1    15    16    1
     2    17    18   ar
     3    19    20   ar
     4    14    20    1
     5    14    11    1
     6     7    11    1
     7     7     8    1
     8     8     9    1
     9     9    12    1
    10    10    11   am
    11     2     3   ar
    12     4     5   ar
    13     5    23    1
    14    26    22    1
    15    26    27    1
    16    28    27    1
    17    29    30   ar
    18    31    32   ar
    19    33    28   ar
    20     6     1   ar
    21    21    16   ar
    22    12    10   am
    23    12     1    1
    24    23    22   am
    25    16    17   ar
    26    18    19   ar
    27    20    21   ar
    28    10    13    2
    29     1     2   ar
    30     3     4   ar
    31     5     6   ar
    32    22    24    2
    33    28    29   ar
    34    30    31   ar
    35    32    33   ar
    36    23    25    1
@<TRIPOS>MOLECULE
MolPort-006-579-667 ChemDiv-V018-1028 MCULE-7774224366 PubChem-46040631 ZINC000037543390 ZINC37543390
 33 36 0 0 0
SMALL
GASTEIGER

@<TRIPOS>ATOM
      1 C           9.7020   41.2267   10.2385 C.ar    1  UNL1        0.0565
      2 C          10.2805   41.0188   11.5022 C.ar    1  UNL1        0.0150
      3 C           9.5439   41.2384   12.6686 C.ar    1  UNL1        0.0026
      4 C           8.2167   41.6638   12.5858 C.ar    1  UNL1        0.0148
      5 C           7.6165   41.8692   11.3359 C.ar    1  UNL1        0.0516
      6 C           8.3634   41.6497   10.1746 C.ar    1  UNL1        0.0296
      7 C          11.8191   41.1946    6.5298 C.3     1  UNL1        0.0971
      8 C          10.6145   40.2766    6.6302 C.3     1  UNL1        0.0435
      9 C           9.7205   40.7262    7.7872 C.3     1  UNL1        0.1015
     10 C          11.9089   41.0358    9.0147 C.2     1  UNL1        0.3112
     11 N          12.5951   41.0951    7.7569 N.am    1  UNL1       -0.2596
     12 N          10.4629   40.9702    9.0362 N.am    1  UNL1       -0.2430
     13 O          12.5717   40.9980   10.0876 O.2     1  UNL1       -0.2520
     14 C          14.0396   40.9178    7.6775 C.3     1  UNL1        0.1217
     15 C          17.9330   44.0479    7.8594 C.3     1  UNL1        0.0310
     16 C          16.5783   43.7100    7.3522 C.ar    1  UNL1       -0.0221
     17 C          15.9120   44.5916    6.4944 C.ar    1  UNL1       -0.0043
     18 C          14.6369   44.2730    6.0166 C.ar    1  UNL1       -0.0006
     19 C          14.0288   43.0720    6.3949 C.ar    1  UNL1       -0.0026
     20 C          14.6965   42.1869    7.2499 C.ar    1  UNL1       -0.0026
     21 C          15.9695   42.5101    7.7328 C.ar    1  UNL1       -0.0069
     22 C           5.0799   41.5125   11.3570 C.2     1  UNL1        0.2707
     23 N           6.2592   42.3126   11.2087 N.am    1  UNL1       -0.2808
     24 O           5.1535   40.2702   11.5492 O.2     1  UNL1       -0.2707
     25 H           6.1234   43.2647   10.9978 H       1  UNL1        0.1550
     26 C           3.7445   42.1689   11.2838 C.3     1  UNL1        0.2897
     27 O           3.3536   42.3391    9.9248 O.3     1  UNL1       -0.4656
     28 C           4.1665   42.9587    8.9685 C.ar    1  UNL1        0.1393
     29 C           3.9627   44.2948    8.5823 C.ar    1  UNL1        0.0369
     30 C           4.7911   44.8854    7.6234 C.ar    1  UNL1        0.0031
     31 C           5.8265   44.1459    7.0429 C.ar    1  UNL1        0.0002
     32 C           6.0301   42.8149    7.4194 C.ar    1  UNL1        0.0031
     33 C           5.2018   42.2234    8.3788 C.ar    1  UNL1        0.0369
@<TRIPOS>BOND
     1    15    16    1
     2    17    18   ar
     3    19    20   ar
     4    14    20    1
     5    14    11    1
     6     7    11    1
     7     7     8    1
     8     8     9    1
     9     9    12    1
    10    10    11   am
    11     2     3   ar
    12     4     5   ar
    13     5    23    1
    14    26    22    1
    15    26    27    1
    16    28    27    1
    17    29    30   ar
    18    31    32   ar
    19    33    28   ar
    20     6     1   ar
    21    21    16   ar
    22    12    10   am
    23    12     1    1
    24    23    22   am
    25    16    17   ar
    26    18    19   ar
    27    20    21   ar
    28    10    13    2
    29     1     2   ar
    30     3     4   ar
    31     5     6   ar
    32    22    24    2
    33    28    29   ar
    34    30    31   ar
    35    32    33   ar
    36    23    25    1
@<TRIPOS>MOLECULE
MolPort-006-579-667 ChemDiv-V018-1028 MCULE-7774224366 PubChem-46040631 ZINC000037543390 ZINC37543390
 33 36 0 0 0
SMALL
GASTEIGER

@<TRIPOS>ATOM
      1 C           8.8129   40.3857    7.9947 C.ar    1  UNL1        0.0565
      2 C           8.6735   39.3225    7.0863 C.ar    1  UNL1        0.0150
      3 C           7.5044   39.1740    6.3363 C.ar    1  UNL1        0.0026
      4 C           6.4614   40.0907    6.4813 C.ar    1  UNL1        0.0148
      5 C           6.5820   41.1638    7.3750 C.ar    1  UNL1        0.0516
      6 C           7.7549   41.3016    8.1234 C.ar    1  UNL1        0.0296
      7 C          12.2017   40.2514   10.5901 C.3     1  UNL1        0.0971
      8 C          11.3267   41.4883   10.6817 C.3     1  UNL1        0.0435
      9 C           9.9568   41.1956   10.0671 C.3     1  UNL1        0.1015
     10 C          11.3005   40.0173    8.2790 C.2     1  UNL1        0.3112
     11 N          12.4047   39.9165    9.1885 N.am    1  UNL1       -0.2596
     12 N          10.0373   40.5477    8.7464 N.am    1  UNL1       -0.2430
     13 O          11.4522   39.6836    7.0717 O.2     1  UNL1       -0.2520
     14 C          13.7498   39.6218    8.7109 C.3     1  UNL1        0.1217
     15 C          17.6203   42.7852    8.6729 C.3     1  UNL1        0.0310
     16 C          16.2706   42.3999    8.1867 C.ar    1  UNL1       -0.0221
     17 C          15.6026   43.2091    7.2615 C.ar    1  UNL1       -0.0043
     18 C          14.3322   42.8459    6.8034 C.ar    1  UNL1       -0.0006
     19 C          13.7305   41.6725    7.2688 C.ar    1  UNL1       -0.0026
     20 C          14.4000   40.8597    8.1915 C.ar    1  UNL1       -0.0026
     21 C          15.6682   41.2278    8.6543 C.ar    1  UNL1       -0.0069
     22 C           5.6738   43.4709    8.0189 C.2     1  UNL1        0.2707
     23 N           5.5312   42.1216    7.5581 N.am    1  UNL1       -0.2808
     24 O           6.7903   43.9198    8.3895 O.2     1  UNL1       -0.2707
     25 H           4.6180   41.8216    7.3453 H       1  UNL1        0.1550
     26 C           4.4751   44.3548    8.0557 C.3     1  UNL1        0.2897
     27 O           3.4788   43.7978    8.9078 O.3     1  UNL1       -0.4656
     28 C           3.6876   42.6460    9.6751 C.ar    1  UNL1        0.1393
     29 C           4.6085   42.6249   10.7370 C.ar    1  UNL1        0.0369
     30 C           4.7955   41.4583   11.4845 C.ar    1  UNL1        0.0031
     31 C           4.0663   40.3056   11.1758 C.ar    1  UNL1        0.0002
     32 C           3.1532   40.3196   10.1172 C.ar    1  UNL1        0.0031
     33 C           2.9654   41.4864    9.3690 C.ar    1  UNL1        0.0369
@<TRIPOS>BOND
     1    15    16    1
     2    17    18   ar
     3    19    20   ar
     4    14    20    1
     5    14    11    1
     6     7    11    1
     7     7     8    1
     8     8     9    1
     9     9    12    1
    10    10    11   am
    11     2     3   ar
    12     4     5   ar
    13     5    23    1
    14    26    22    1
    15    26    27    1
    16    28    27    1
    17    29    30   ar
    18    31    32   ar
    19    33    28   ar
    20     6     1   ar
    21    21    16   ar
    22    12    10   am
    23    12     1    1
    24    23    22   am
    25    16    17   ar
    26    18    19   ar
    27    20    21   ar
    28    10    13    2
    29     1     2   ar
    30     3     4   ar
    31     5     6   ar
    32    22    24    2
    33    28    29   ar
    34    30    31   ar
    35    32    33   ar
    36    23    25    1
@<TRIPOS>MOLECULE
MolPort-006-579-667 ChemDiv-V018-1028 MCULE-7774224366 PubChem-46040631 ZINC000037543390 ZINC37543390
 33 36 0 0 0
SMALL
GASTEIGER

@<TRIPOS>ATOM
      1 C          10.4034   41.1729   11.2513 C.ar    1  UNL1        0.0565
      2 C          10.5442   41.0701   12.6458 C.ar    1  UNL1        0.0150
      3 C           9.4745   41.3652   13.4942 C.ar    1  UNL1        0.0026
      4 C           8.2479   41.7618   12.9583 C.ar    1  UNL1        0.0148
      5 C           8.0820   41.8628   11.5701 C.ar    1  UNL1        0.0516
      6 C           9.1598   41.5685   10.7297 C.ar    1  UNL1        0.0296
      7 C          13.2780   39.5532    8.5400 C.3     1  UNL1        0.0971
      8 C          13.7475   39.7890    9.9640 C.3     1  UNL1        0.0435
      9 C          12.5366   39.9166   10.8902 C.3     1  UNL1        0.1015
     10 C          11.5749   41.3095    9.0123 C.2     1  UNL1        0.3112
     11 N          12.5001   40.7019    8.1004 N.am    1  UNL1       -0.2596
     12 N          11.5074   40.8388   10.3795 N.am    1  UNL1       -0.2430
     13 O          10.8604   42.2754    8.6272 O.2     1  UNL1       -0.2520
     14 C          12.7748   41.2959    6.7982 C.3     1  UNL1        0.1217
     15 C          17.3065   42.4026    8.5950 C.3     1  UNL1        0.0310
     16 C          16.1259   42.7692    7.7715 C.ar    1  UNL1       -0.0221
     17 C          16.0947   43.9959    7.0998 C.ar    1  UNL1       -0.0043
     18 C          14.9833   44.3407    6.3240 C.ar    1  UNL1       -0.0006
     19 C          13.9040   43.4580    6.2182 C.ar    1  UNL1       -0.0026
     20 C          13.9360   42.2281    6.8865 C.ar    1  UNL1       -0.0026
     21 C          15.0456   41.8873    7.6680 C.ar    1  UNL1       -0.0069
     22 C           5.5675   41.6362   11.1368 C.2     1  UNL1        0.2707
     23 N           6.8412   42.2737   10.9813 N.am    1  UNL1       -0.2808
     24 O           5.4498   40.5610   11.7815 O.2     1  UNL1       -0.2707
     25 H           6.8670   43.0762   10.4115 H       1  UNL1        0.1550
     26 C           4.3633   42.2634   10.5237 C.3     1  UNL1        0.2897
     27 O           4.7521   43.2242    9.5468 O.3     1  UNL1       -0.4656
     28 C           5.5399   42.9061    8.4344 C.ar    1  UNL1        0.1393
     29 C           6.0806   43.9038    7.6049 C.ar    1  UNL1        0.0369
     30 C           6.8629   43.5541    6.5002 C.ar    1  UNL1        0.0031
     31 C           7.1087   42.2071    6.2156 C.ar    1  UNL1        0.0002
     32 C           6.5687   41.2107    7.0343 C.ar    1  UNL1        0.0031
     33 C           5.7861   41.5598    8.1398 C.ar    1  UNL1        0.0369
@<TRIPOS>BOND
     1    15    16    1
     2    17    18   ar
     3    19    20   ar
     4    14    20    1
     5    14    11    1
     6     7    11    1
     7     7     8    1
     8     8     9    1
     9     9    12    1
    10    10    11   am
    11     2     3   ar
    12     4     5   ar
    13     5    23    1
    14    26    22    1
    15    26    27    1
    16    28    27    1
    17    29    30   ar
    18    31    32   ar
    19    33    28   ar
    20     6     1   ar
    21    21    16   ar
    22    12    10   am
    23    12     1    1
    24    23    22   am
    25    16    17   ar
    26    18    19   ar
    27    20    21   ar
    28    10    13    2
    29     1     2   ar
    30     3     4   ar
    31     5     6   ar
    32    22    24    2
    33    28    29   ar
    34    30    31   ar
    35    32    33   ar
    36    23    25    1
@<TRIPOS>MOLECULE
MolPort-006-579-667 ChemDiv-V018-1028 MCULE-7774224366 PubChem-46040631 ZINC000037543390 ZINC37543390
 33 36 0 0 0
SMALL
GASTEIGER

@<TRIPOS>ATOM
      1 C          12.1359   39.9170   10.2817 C.ar    1  UNL1        0.0565
      2 C          12.4588   38.6877   10.8814 C.ar    1  UNL1        0.0150
      3 C          13.7620   38.1878   10.8259 C.ar    1  UNL1        0.0026
      4 C          14.7607   38.9139   10.1743 C.ar    1  UNL1        0.0148
      5 C          14.4633   40.1465    9.5767 C.ar    1  UNL1        0.0516
      6 C          13.1551   40.6365    9.6349 C.ar    1  UNL1        0.0296
      7 C           8.4802   42.1233   10.3612 C.3     1  UNL1        0.0971
      8 C           8.9058   41.4702   11.6636 C.3     1  UNL1        0.0435
      9 C          10.3970   41.1336   11.6067 C.3     1  UNL1        0.1015
     10 C           9.8705   40.3783    9.2522 C.2     1  UNL1        0.3112
     11 N           8.6832   41.1822    9.2699 N.am    1  UNL1       -0.2596
     12 N          10.7908   40.4402   10.3679 N.am    1  UNL1       -0.2430
     13 O          10.0804   39.5938    8.2865 O.2     1  UNL1       -0.2520
     14 C           7.6182   40.9749    8.2967 C.3     1  UNL1        0.1217
     15 C           4.6044   44.9274    7.7637 C.3     1  UNL1        0.0310
     16 C           4.9437   43.6530    8.4473 C.ar    1  UNL1       -0.0221
     17 C           4.1297   43.1738    9.4790 C.ar    1  UNL1       -0.0043
     18 C           4.4491   41.9737   10.1221 C.ar    1  UNL1       -0.0006
     19 C           5.5813   41.2517    9.7322 C.ar    1  UNL1       -0.0026
     20 C           6.3944   41.7282    8.6967 C.ar    1  UNL1       -0.0026
     21 C           6.0776   42.9327    8.0588 C.ar    1  UNL1       -0.0069
     22 C          16.8508   41.0033    9.2195 C.2     1  UNL1        0.2707
     23 N          15.4584   40.9185    8.8920 N.am    1  UNL1       -0.2808
     24 O          17.3181   40.4296   10.2383 O.2     1  UNL1       -0.2707
     25 H          15.1540   41.4443    8.1174 H       1  UNL1        0.1550
     26 C          17.7577   41.7846    8.3327 C.3     1  UNL1        0.2897
     27 O          17.3090   43.1329    8.2348 O.3     1  UNL1       -0.4656
     28 C          16.3639   43.5565    7.2932 C.ar    1  UNL1        0.1393
     29 C          16.5297   44.7491    6.5679 C.ar    1  UNL1        0.0369
     30 C          15.5673   45.1460    5.6348 C.ar    1  UNL1        0.0031
     31 C          14.4330   44.3564    5.4211 C.ar    1  UNL1        0.0002
     32 C          14.2606   43.1720    6.1438 C.ar    1  UNL1        0.0031
     33 C          15.2231   42.7742    7.0774 C.ar    1  UNL1        0.0369
@<TRIPOS>BOND
     1    15    16    1
     2    17    18   ar
     3    19    20   ar
     4    14    20    1
     5    14    11    1
     6     7    11    1
     7     7     8    1
     8     8     9    1
     9     9    12    1
    10    10    11   am
    11     2     3   ar
    12     4     5   ar
    13     5    23    1
    14    26    22    1
    15    26    27    1
    16    28    27    1
    17    29    30   ar
    18    31    32   ar
    19    33    28   ar
    20     6     1   ar
    21    21    16   ar
    22    12    10   am
    23    12     1    1
    24    23    22   am
    25    16    17   ar
    26    18    19   ar
    27    20    21   ar
    28    10    13    2
    29     1     2   ar
    30     3     4   ar
    31     5     6   ar
    32    22    24    2
    33    28    29   ar
    34    30    31   ar
    35    32    33   ar
    36    23    25    1
@<TRIPOS>MOLECULE
MolPort-006-579-667 ChemDiv-V018-1028 MCULE-7774224366 PubChem-46040631 ZINC000037543390 ZINC37543390
 33 36 0 0 0
SMALL
GASTEIGER

@<TRIPOS>ATOM
      1 C          14.7612   41.2749    8.4164 C.ar    1  UNL1        0.0565
      2 C          15.7903   42.1465    8.0213 C.ar    1  UNL1        0.0150
      3 C          15.5899   43.0642    6.9875 C.ar    1  UNL1        0.0026
      4 C          14.3552   43.1258    6.3388 C.ar    1  UNL1        0.0148
      5 C          13.3116   42.2720    6.7220 C.ar    1  UNL1        0.0516
      6 C          13.5234   41.3548    7.7558 C.ar    1  UNL1        0.0296
      7 C          15.1298   38.0131   11.1482 C.3     1  UNL1        0.0971
      8 C          14.1567   39.1125   11.5331 C.3     1  UNL1        0.0435
      9 C          13.7945   39.9352   10.2953 C.3     1  UNL1        0.1015
     10 C          16.2623   39.7572    9.7757 C.2     1  UNL1        0.3112
     11 N          16.3529   38.6178   10.6418 N.am    1  UNL1       -0.2596
     12 N          14.9683   40.3473    9.5059 N.am    1  UNL1       -0.2430
     13 O          17.3135   40.2602    9.2921 O.2     1  UNL1       -0.2520
     14 C          17.6412   38.1445   11.1322 C.3     1  UNL1        0.1217
     15 C          17.0590   35.0673    7.2360 C.3     1  UNL1        0.0310
     16 C          17.8128   35.4770    8.4485 C.ar    1  UNL1       -0.0221
     17 C          18.9423   34.7546    8.8479 C.ar    1  UNL1       -0.0043
     18 C          19.6522   35.1408    9.9892 C.ar    1  UNL1       -0.0006
     19 C          19.2340   36.2506   10.7301 C.ar    1  UNL1       -0.0026
     20 C          18.1063   36.9769   10.3289 C.ar    1  UNL1       -0.0026
     21 C          17.3928   36.5853    9.1906 C.ar    1  UNL1       -0.0069
     22 C          10.7792   41.8943    6.6416 C.2     1  UNL1        0.2707
     23 N          12.0321   42.2990    6.0762 N.am    1  UNL1       -0.2808
     24 O          10.7158   41.3854    7.7917 O.2     1  UNL1       -0.2707
     25 H          12.0121   42.6295    5.1490 H       1  UNL1        0.1550
     26 C           9.5316   42.0838    5.8499 C.3     1  UNL1        0.2897
     27 O           8.9112   40.8262    5.6003 O.3     1  UNL1       -0.4656
     28 C           9.4848   39.8394    4.7900 C.ar    1  UNL1        0.1393
     29 C           8.7090   38.8241    4.2043 C.ar    1  UNL1        0.0369
     30 C           9.3115   37.8518    3.4005 C.ar    1  UNL1        0.0031
     31 C          10.6917   37.8857    3.1778 C.ar    1  UNL1        0.0002
     32 C          11.4688   38.8902    3.7624 C.ar    1  UNL1        0.0031
     33 C          10.8667   39.8634    4.5665 C.ar    1  UNL1        0.0369
@<TRIPOS>BOND
     1    15    16    1
     2    17    18   ar
     3    19    20   ar
     4    14    20    1
     5    14    11    1
     6     7    11    1
     7     7     8    1
     8     8     9    1
     9     9    12    1
    10    10    11   am
    11     2     3   ar
    12     4     5   ar
    13     5    23    1
    14    26    22    1
    15    26    27    1
    16    28    27    1
    17    29    30   ar
    18    31    32   ar
    19    33    28   ar
    20     6     1   ar
    21    21    16   ar
    22    12    10   am
    23    12     1    1
    24    23    22   am
    25    16    17   ar
    26    18    19   ar
    27    20    21   ar
    28    10    13    2
    29     1     2   ar
    30     3     4   ar
    31     5     6   ar
    32    22    24    2
    33    28    29   ar
    34    30    31   ar
    35    32    33   ar
    36    23    25    1
