@<TRIPOS>MOLECULE
MolPort-002-782-092 36616315 CSSS00133001696 MCULE-1810885400 PubChem-44822874 ZINC000036616315 ZINC36616315
 27 30 0 0 0
SMALL
GASTEIGER

@<TRIPOS>ATOM
      1 C          12.0190   41.2617    7.2047 C.2     1  UNL1        0.2508
      2 N          11.0250   41.0897    8.2244 N.am    1  UNL1       -0.2644
      3 O          11.6889   41.2655    5.9876 O.2     1  UNL1       -0.2698
      4 H          11.3353   41.0942    9.1587 H       1  UNL1        0.1566
      5 C          13.4341   41.4372    7.5902 C.ar    1  UNL1        0.0594
      6 C          14.2705   42.3960    7.0076 C.ar    1  UNL1        0.0607
      7 C          14.0762   43.3547    6.0244 C.ar    1  UNL1        0.1233
      8 C          17.5325   43.9433    6.7882 C.3     1  UNL1        0.1554
      9 C          15.5712   42.5191    7.3880 C.ar    1  UNL1        0.1607
     10 C          15.3662   40.7928    8.9612 C.ar    1  UNL1        0.0604
     11 C          14.0113   40.6208    8.5848 C.ar    1  UNL1        0.0194
     12 N          15.2569   44.0090    5.8556 N.ar    1  UNL1       -0.1663
     13 N          16.1553   43.4944    6.6858 N.ar    1  UNL1       -0.2320
     14 N          16.1370   41.7395    8.3418 N.ar    1  UNL1       -0.2312
     15 C          15.9705   39.8911    9.9913 C.3     1  UNL1        0.0404
     16 C          15.5842   38.4491    9.7099 C.3     1  UNL1        0.0063
     17 C          14.8818   39.2149   10.8070 C.3     1  UNL1        0.0063
     18 C           9.6211   40.9119    8.0038 C.ar    1  UNL1        0.1553
     19 C           9.0407   40.1937    6.9644 C.ar    1  UNL1        0.0505
     20 C           7.6914   40.3452    7.2220 C.ar    1  UNL1        0.0588
     21 C           6.5922   39.7686    6.3973 C.3     1  UNL1        0.0518
     22 N           7.5138   41.0914    8.3269 N.ar    1  UNL1       -0.2537
     23 N           8.6886   41.4487    8.8125 N.ar    1  UNL1       -0.1543
     24 C           6.2391   41.4895    8.9058 C.3     1  UNL1        0.1271
     25 C           6.3496   41.5480   10.4173 C.3     1  UNL1        0.0263
     26 C           4.1132   42.0836   11.3229 C.3     1  UNL1        0.0001
     27 C           5.0963   40.9683   11.0369 C.3     1  UNL1        0.0021
@<TRIPOS>BOND
     1    26    27    1
     2    27    25    1
     3    25    24    1
     4    24    22    1
     5    18     2    1
     6    18    19   ar
     7     1     5    1
     8     6     7   ar
     9     8    13    1
    10     9     6   ar
    11    10    14   ar
    12    11     5   ar
    13    15    10    1
    14    15    16    1
    15    16    17    1
    16    17    15    1
    17    20    22   ar
    18    21    20    1
    19    22    23   ar
    20     2     1   am
    21    13    12   ar
    22    13     9   ar
    23    18    23   ar
    24     1     3    2
    25     5     6   ar
    26     7    12   ar
    27     9    14   ar
    28    10    11   ar
    29    19    20   ar
    30     2     4    1
@<TRIPOS>MOLECULE
MolPort-002-782-092 36616315 CSSS00133001696 MCULE-1810885400 PubChem-44822874 ZINC000036616315 ZINC36616315
 27 30 0 0 0
SMALL
GASTEIGER

@<TRIPOS>ATOM
      1 C          11.9730   41.6788    7.0586 C.2     1  UNL1        0.2508
      2 N          10.9673   41.5647    8.0750 N.am    1  UNL1       -0.2644
      3 O          11.6454   41.7371    5.8421 O.2     1  UNL1       -0.2698
      4 H          11.2761   41.5227    9.0089 H       1  UNL1        0.1566
      5 C          13.3973   41.7303    7.4468 C.ar    1  UNL1        0.0594
      6 C          14.3101   42.6284    6.8824 C.ar    1  UNL1        0.0607
      7 C          14.1960   43.6186    5.9180 C.ar    1  UNL1        0.1233
      8 C          17.6881   43.9073    6.6914 C.3     1  UNL1        0.1554
      9 C          15.6160   42.6372    7.2645 C.ar    1  UNL1        0.1607
     10 C          15.2685   40.9034    8.8041 C.ar    1  UNL1        0.0604
     11 C          13.9045   40.8504    8.4251 C.ar    1  UNL1        0.0194
     12 N          15.4265   44.1771    5.7613 N.ar    1  UNL1       -0.1663
     13 N          16.2788   43.5748    6.5809 N.ar    1  UNL1       -0.2320
     14 N          16.1150   41.7956    8.2027 N.ar    1  UNL1       -0.2312
     15 C          15.7958   39.9356    9.8163 C.3     1  UNL1        0.0404
     16 C          15.2716   38.5403    9.5228 C.3     1  UNL1        0.0063
     17 C          14.6568   39.3550   10.6371 C.3     1  UNL1        0.0063
     18 C           9.5539   41.5062    7.8516 C.ar    1  UNL1        0.1553
     19 C           8.8791   40.5266    7.1318 C.ar    1  UNL1        0.0505
     20 C           7.5658   40.9464    7.2267 C.ar    1  UNL1        0.0588
     21 C           6.3978   40.2491    6.6181 C.3     1  UNL1        0.0518
     22 N           7.4948   42.0791    7.9487 N.ar    1  UNL1       -0.2537
     23 N           8.7069   42.4348    8.3333 N.ar    1  UNL1       -0.1543
     24 C           6.2901   42.8383    8.2502 C.3     1  UNL1        0.1271
     25 C           6.0704   43.9060    7.1958 C.3     1  UNL1        0.0263
     26 C           3.9815   44.0789    8.5054 C.3     1  UNL1        0.0001
     27 C           4.9690   44.8409    7.6473 C.3     1  UNL1        0.0021
@<TRIPOS>BOND
     1    26    27    1
     2    27    25    1
     3    25    24    1
     4    24    22    1
     5    18     2    1
     6    18    19   ar
     7     1     5    1
     8     6     7   ar
     9     8    13    1
    10     9     6   ar
    11    10    14   ar
    12    11     5   ar
    13    15    10    1
    14    15    16    1
    15    16    17    1
    16    17    15    1
    17    20    22   ar
    18    21    20    1
    19    22    23   ar
    20     2     1   am
    21    13    12   ar
    22    13     9   ar
    23    18    23   ar
    24     1     3    2
    25     5     6   ar
    26     7    12   ar
    27     9    14   ar
    28    10    11   ar
    29    19    20   ar
    30     2     4    1
@<TRIPOS>MOLECULE
MolPort-002-782-092 36616315 CSSS00133001696 MCULE-1810885400 PubChem-44822874 ZINC000036616315 ZINC36616315
 27 30 0 0 0
SMALL
GASTEIGER

@<TRIPOS>ATOM
      1 C          11.1107   41.7778    7.7416 C.2     1  UNL1        0.2508
      2 N          10.1868   42.1284    8.7813 N.am    1  UNL1       -0.2644
      3 O          10.7077   41.6243    6.5565 O.2     1  UNL1       -0.2698
      4 H          10.5527   42.2361    9.6890 H       1  UNL1        0.1566
      5 C          12.5403   41.5998    8.0681 C.ar    1  UNL1        0.0594
      6 C          13.5639   42.3007    7.4205 C.ar    1  UNL1        0.0607
      7 C          13.5731   43.2516    6.4110 C.ar    1  UNL1        0.1233
      8 C          17.0970   42.9670    7.0250 C.3     1  UNL1        0.1554
      9 C          14.8695   42.1008    7.7480 C.ar    1  UNL1        0.1607
     10 C          14.3077   40.5236    9.3893 C.ar    1  UNL1        0.0604
     11 C          12.9376   40.6901    9.0697 C.ar    1  UNL1        0.0194
     12 N          14.8715   43.5816    6.1751 N.ar    1  UNL1       -0.1663
     13 N          15.6479   42.8783    6.9897 N.ar    1  UNL1       -0.2320
     14 N          15.2632   41.2285    8.7079 N.ar    1  UNL1       -0.2312
     15 C          14.7114   39.5254   10.4285 C.3     1  UNL1        0.0404
     16 C          13.7955   38.3149   10.3692 C.3     1  UNL1        0.0063
     17 C          13.6034   39.3502   11.4530 C.3     1  UNL1        0.0063
     18 C           8.7794   42.3355    8.6161 C.ar    1  UNL1        0.1553
     19 C           8.1438   43.5644    8.4788 C.ar    1  UNL1        0.0505
     20 C           6.8175   43.1957    8.3568 C.ar    1  UNL1        0.0588
     21 C           5.6783   44.1409    8.1851 C.3     1  UNL1        0.0518
     22 N           6.7037   41.8568    8.4169 N.ar    1  UNL1       -0.2537
     23 N           7.8983   41.3186    8.5804 N.ar    1  UNL1       -0.1543
     24 C           5.4684   41.0900    8.3490 C.3     1  UNL1        0.1271
     25 C           4.8110   41.0402    9.7149 C.3     1  UNL1        0.0263
     26 C           2.8728   42.0149   10.8987 C.3     1  UNL1        0.0001
     27 C           3.3544   41.4311    9.5875 C.3     1  UNL1        0.0021
@<TRIPOS>BOND
     1    26    27    1
     2    27    25    1
     3    25    24    1
     4    24    22    1
     5    18     2    1
     6    18    19   ar
     7     1     5    1
     8     6     7   ar
     9     8    13    1
    10     9     6   ar
    11    10    14   ar
    12    11     5   ar
    13    15    10    1
    14    15    16    1
    15    16    17    1
    16    17    15    1
    17    20    22   ar
    18    21    20    1
    19    22    23   ar
    20     2     1   am
    21    13    12   ar
    22    13     9   ar
    23    18    23   ar
    24     1     3    2
    25     5     6   ar
    26     7    12   ar
    27     9    14   ar
    28    10    11   ar
    29    19    20   ar
    30     2     4    1
@<TRIPOS>MOLECULE
MolPort-002-782-092 36616315 CSSS00133001696 MCULE-1810885400 PubChem-44822874 ZINC000036616315 ZINC36616315
 27 30 0 0 0
SMALL
GASTEIGER

@<TRIPOS>ATOM
      1 C           6.7002   39.2045    4.6213 C.2     1  UNL1        0.2508
      2 N           6.9929   38.9684    3.2371 N.am    1  UNL1       -0.2644
      3 O           5.6503   38.7358    5.1393 O.2     1  UNL1       -0.2698
      4 H           7.8251   39.3565    2.8819 H       1  UNL1        0.1566
      5 C           7.6396   39.9996    5.4382 C.ar    1  UNL1        0.0594
      6 C           9.0000   40.1227    5.1341 C.ar    1  UNL1        0.0607
      7 C           9.7958   39.6159    4.1175 C.ar    1  UNL1        0.1233
      8 C          12.2530   41.4703    5.9612 C.3     1  UNL1        0.1554
      9 C           9.8322   40.8602    5.9184 C.ar    1  UNL1        0.1607
     10 C           8.0865   41.4496    7.3684 C.ar    1  UNL1        0.0604
     11 C           7.1886   40.6804    6.5880 C.ar    1  UNL1        0.0194
     12 N          11.0621   40.0654    4.3302 N.ar    1  UNL1       -0.1663
     13 N          11.0727   40.8172    5.4236 N.ar    1  UNL1       -0.2320
     14 N           9.4103   41.5178    7.0262 N.ar    1  UNL1       -0.2312
     15 C           7.5963   42.1331    8.6060 C.3     1  UNL1        0.0404
     16 C           8.4660   43.3407    8.9114 C.3     1  UNL1        0.0063
     17 C           8.6478   42.0648    9.7004 C.3     1  UNL1        0.0063
     18 C           6.1818   38.2181    2.3258 C.ar    1  UNL1        0.1553
     19 C           6.3553   38.1416    0.9485 C.ar    1  UNL1        0.0505
     20 C           5.3214   37.3065    0.5694 C.ar    1  UNL1        0.0588
     21 C           5.0318   36.8829   -0.8297 C.3     1  UNL1        0.0518
     22 N           4.6120   36.9316    1.6491 N.ar    1  UNL1       -0.2537
     23 N           5.1265   37.4874    2.7307 N.ar    1  UNL1       -0.1543
     24 C           3.4356   36.0747    1.6558 C.3     1  UNL1        0.1271
     25 C           3.8522   34.6181    1.5859 C.3     1  UNL1        0.0263
     26 C           2.9712   33.0288    3.2611 C.3     1  UNL1        0.0001
     27 C           2.6770   33.7394    1.9570 C.3     1  UNL1        0.0021
@<TRIPOS>BOND
     1    26    27    1
     2    27    25    1
     3    25    24    1
     4    24    22    1
     5    18     2    1
     6    18    19   ar
     7     1     5    1
     8     6     7   ar
     9     8    13    1
    10     9     6   ar
    11    10    14   ar
    12    11     5   ar
    13    15    10    1
    14    15    16    1
    15    16    17    1
    16    17    15    1
    17    20    22   ar
    18    21    20    1
    19    22    23   ar
    20     2     1   am
    21    13    12   ar
    22    13     9   ar
    23    18    23   ar
    24     1     3    2
    25     5     6   ar
    26     7    12   ar
    27     9    14   ar
    28    10    11   ar
    29    19    20   ar
    30     2     4    1
@<TRIPOS>MOLECULE
MolPort-002-782-092 36616315 CSSS00133001696 MCULE-1810885400 PubChem-44822874 ZINC000036616315 ZINC36616315
 27 30 0 0 0
SMALL
GASTEIGER

@<TRIPOS>ATOM
      1 C          10.3783   41.6600    9.9101 C.2     1  UNL1        0.2508
      2 N          11.0803   40.4327    9.6683 N.am    1  UNL1       -0.2644
      3 O          10.9643   42.6310   10.4616 O.2     1  UNL1       -0.2698
      4 H          10.5769   39.7059    9.2352 H       1  UNL1        0.1566
      5 C           8.9626   41.7803    9.5060 C.ar    1  UNL1        0.0594
      6 C           8.5613   41.9698    8.1789 C.ar    1  UNL1        0.0607
      7 C           9.2556   42.0883    6.9841 C.ar    1  UNL1        0.1233
      8 C           5.8916   42.4237    5.7810 C.3     1  UNL1        0.1554
      9 C           7.2454   42.0826    7.8512 C.ar    1  UNL1        0.1607
     10 C           6.5764   41.8173   10.0826 C.ar    1  UNL1        0.0604
     11 C           7.9351   41.7097   10.4693 C.ar    1  UNL1        0.0194
     12 N           8.3373   42.2658    5.9962 N.ar    1  UNL1       -0.1663
     13 N           7.1235   42.2614    6.5326 N.ar    1  UNL1       -0.2320
     14 N           6.2494   42.0174    8.7684 N.ar    1  UNL1       -0.2312
     15 C           5.5029   41.7782   11.1244 C.3     1  UNL1        0.0404
     16 C           4.4893   40.6987   10.7852 C.3     1  UNL1        0.0063
     17 C           4.1611   42.1490   10.5162 C.3     1  UNL1        0.0063
     18 C          12.4485   40.1710   10.0011 C.ar    1  UNL1        0.1553
     19 C          12.8978   39.3698   11.0447 C.ar    1  UNL1        0.0505
     20 C          14.2706   39.4646   10.9160 C.ar    1  UNL1        0.0588
     21 C          15.2621   38.7891   11.7998 C.3     1  UNL1        0.0518
     22 N          14.5825   40.2580    9.8755 N.ar    1  UNL1       -0.2537
     23 N          13.4746   40.7008    9.3097 N.ar    1  UNL1       -0.1543
     24 C          15.9217   40.6195    9.4348 C.3     1  UNL1        0.1271
     25 C          15.8463   41.7012    8.3744 C.3     1  UNL1        0.0263
     26 C          18.3109   41.5280    8.3139 C.3     1  UNL1        0.0001
     27 C          17.1401   42.4865    8.3628 C.3     1  UNL1        0.0021
@<TRIPOS>BOND
     1    26    27    1
     2    27    25    1
     3    25    24    1
     4    24    22    1
     5    18     2    1
     6    18    19   ar
     7     1     5    1
     8     6     7   ar
     9     8    13    1
    10     9     6   ar
    11    10    14   ar
    12    11     5   ar
    13    15    10    1
    14    15    16    1
    15    16    17    1
    16    17    15    1
    17    20    22   ar
    18    21    20    1
    19    22    23   ar
    20     2     1   am
    21    13    12   ar
    22    13     9   ar
    23    18    23   ar
    24     1     3    2
    25     5     6   ar
    26     7    12   ar
    27     9    14   ar
    28    10    11   ar
    29    19    20   ar
    30     2     4    1
@<TRIPOS>MOLECULE
MolPort-002-782-092 36616315 CSSS00133001696 MCULE-1810885400 PubChem-44822874 ZINC000036616315 ZINC36616315
 27 30 0 0 0
SMALL
GASTEIGER

@<TRIPOS>ATOM
      1 C          11.8937   41.3111    8.1785 C.2     1  UNL1        0.2508
      2 N          11.0894   42.0845    9.0798 N.am    1  UNL1       -0.2644
      3 O          11.3500   40.5535    7.3296 O.2     1  UNL1       -0.2698
      4 H          11.5632   42.6598    9.7230 H       1  UNL1        0.1566
      5 C          13.3659   41.4100    8.2496 C.ar    1  UNL1        0.0594
      6 C          14.1085   42.3100    7.4772 C.ar    1  UNL1        0.0607
      7 C          13.7601   43.2639    6.5326 C.ar    1  UNL1        0.1233
      8 C          17.3262   43.6624    6.5283 C.3     1  UNL1        0.1554
      9 C          15.4651   42.3631    7.5690 C.ar    1  UNL1        0.1607
     10 C          15.5091   40.6748    9.1952 C.ar    1  UNL1        0.0604
     11 C          14.0978   40.5761    9.1202 C.ar    1  UNL1        0.0194
     12 N          14.9107   43.8461    6.0992 N.ar    1  UNL1       -0.1663
     13 N          15.9369   43.2926    6.7329 N.ar    1  UNL1       -0.2320
     14 N          16.1792   41.5661    8.4011 N.ar    1  UNL1       -0.2312
     15 C          16.2704   39.7548   10.0970 C.3     1  UNL1        0.0404
     16 C          15.8974   38.3120    9.8016 C.3     1  UNL1        0.0063
     17 C          15.3190   39.0048   11.0136 C.3     1  UNL1        0.0063
     18 C           9.6580   42.0939    9.1269 C.ar    1  UNL1        0.1553
     19 C           8.8693   41.5660   10.1429 C.ar    1  UNL1        0.0505
     20 C           7.5913   41.8369    9.6919 C.ar    1  UNL1        0.0588
     21 C           6.3358   41.4759   10.4088 C.3     1  UNL1        0.0518
     22 N           7.6454   42.4743    8.5086 N.ar    1  UNL1       -0.2537
     23 N           8.9061   42.6335    8.1495 N.ar    1  UNL1       -0.1543
     24 C           6.5104   42.9060    7.7063 C.3     1  UNL1        0.1271
     25 C           6.1680   44.3492    8.0230 C.3     1  UNL1        0.0263
     26 C           3.8976   43.7644    8.8050 C.3     1  UNL1        0.0001
     27 C           4.6881   44.5763    7.8011 C.3     1  UNL1        0.0021
@<TRIPOS>BOND
     1    26    27    1
     2    27    25    1
     3    25    24    1
     4    24    22    1
     5    18     2    1
     6    18    19   ar
     7     1     5    1
     8     6     7   ar
     9     8    13    1
    10     9     6   ar
    11    10    14   ar
    12    11     5   ar
    13    15    10    1
    14    15    16    1
    15    16    17    1
    16    17    15    1
    17    20    22   ar
    18    21    20    1
    19    22    23   ar
    20     2     1   am
    21    13    12   ar
    22    13     9   ar
    23    18    23   ar
    24     1     3    2
    25     5     6   ar
    26     7    12   ar
    27     9    14   ar
    28    10    11   ar
    29    19    20   ar
    30     2     4    1
@<TRIPOS>MOLECULE
MolPort-002-782-092 36616315 CSSS00133001696 MCULE-1810885400 PubChem-44822874 ZINC000036616315 ZINC36616315
 27 30 0 0 0
SMALL
GASTEIGER

@<TRIPOS>ATOM
      1 C          12.0980   41.5837    7.0895 C.2     1  UNL1        0.2508
      2 N          11.1136   41.1840    8.0532 N.am    1  UNL1       -0.2644
      3 O          11.7667   41.7976    5.8917 O.2     1  UNL1       -0.2698
      4 H          11.4244   41.0295    8.9744 H       1  UNL1        0.1566
      5 C          13.5045   41.7458    7.5106 C.ar    1  UNL1        0.0594
      6 C          14.1548   40.8455    8.3620 C.ar    1  UNL1        0.0607
      7 C          13.7543   39.6785    8.9954 C.ar    1  UNL1        0.1233
      8 C          17.1427   39.8824   10.1586 C.3     1  UNL1        0.1554
      9 C          15.4506   41.0368    8.7307 C.ar    1  UNL1        0.1607
     10 C          15.6153   42.9986    7.4573 C.ar    1  UNL1        0.0604
     11 C          14.2640   42.8455    7.0605 C.ar    1  UNL1        0.0194
     12 N          14.8158   39.2201    9.7122 N.ar    1  UNL1       -0.1663
     13 N          15.8373   40.0506    9.5452 N.ar    1  UNL1       -0.2320
     14 N          16.1900   42.0904    8.3053 N.ar    1  UNL1       -0.2312
     15 C          16.3926   44.1926    6.9996 C.3     1  UNL1        0.0404
     16 C          17.3704   43.7888    5.9093 C.3     1  UNL1        0.0063
     17 C          17.8677   44.0178    7.3178 C.3     1  UNL1        0.0063
     18 C           9.7185   40.9896    7.7938 C.ar    1  UNL1        0.1553
     19 C           9.1696   40.0386    6.9411 C.ar    1  UNL1        0.0505
     20 C           7.8151   40.2860    7.0603 C.ar    1  UNL1        0.0588
     21 C           6.7421   39.5409    6.3431 C.3     1  UNL1        0.0518
     22 N           7.6054   41.3002    7.9186 N.ar    1  UNL1       -0.2537
     23 N           8.7641   41.7429    8.3712 N.ar    1  UNL1       -0.1543
     24 C           6.3172   41.8680    8.2880 C.3     1  UNL1        0.1271
     25 C           5.8886   41.3462    9.6460 C.3     1  UNL1        0.0263
     26 C           4.0081   40.4040   10.9439 C.3     1  UNL1        0.0001
     27 C           4.4324   40.9368    9.5919 C.3     1  UNL1        0.0021
@<TRIPOS>BOND
     1    26    27    1
     2    27    25    1
     3    25    24    1
     4    24    22    1
     5    18     2    1
     6    18    19   ar
     7     1     5    1
     8     6     7   ar
     9     8    13    1
    10     9     6   ar
    11    10    14   ar
    12    11     5   ar
    13    15    10    1
    14    15    16    1
    15    16    17    1
    16    17    15    1
    17    20    22   ar
    18    21    20    1
    19    22    23   ar
    20     2     1   am
    21    13    12   ar
    22    13     9   ar
    23    18    23   ar
    24     1     3    2
    25     5     6   ar
    26     7    12   ar
    27     9    14   ar
    28    10    11   ar
    29    19    20   ar
    30     2     4    1
@<TRIPOS>MOLECULE
MolPort-002-782-092 36616315 CSSS00133001696 MCULE-1810885400 PubChem-44822874 ZINC000036616315 ZINC36616315
 27 30 0 0 0
SMALL
GASTEIGER

@<TRIPOS>ATOM
      1 C           7.3910   41.5572    9.0533 C.2     1  UNL1        0.2508
      2 N           8.3752   41.9786   10.0079 N.am    1  UNL1       -0.2644
      3 O           7.6954   40.7384    8.1438 O.2     1  UNL1       -0.2698
      4 H           8.0861   42.6190   10.6974 H       1  UNL1        0.1566
      5 C           6.0154   42.0876    9.1443 C.ar    1  UNL1        0.0594
      6 C           5.5971   43.2429    8.4745 C.ar    1  UNL1        0.0607
      7 C           6.2390   44.1365    7.6301 C.ar    1  UNL1        0.1233
      8 C           2.9685   45.6103    7.7202 C.3     1  UNL1        0.1554
      9 C           4.3211   43.7009    8.5917 C.ar    1  UNL1        0.1607
     10 C           3.7251   41.9363   10.0158 C.ar    1  UNL1        0.0604
     11 C           5.0469   41.4332    9.9334 C.ar    1  UNL1        0.0194
     12 N           5.3311   45.0863    7.2774 N.ar    1  UNL1       -0.1663
     13 N           4.1735   44.8130    7.8659 N.ar    1  UNL1       -0.2320
     14 N           3.3822   43.0811    9.3479 N.ar    1  UNL1       -0.2312
     15 C           2.7226   41.2491   10.8888 C.3     1  UNL1        0.0404
     16 C           2.4368   42.0961   12.1172 C.3     1  UNL1        0.0063
     17 C           3.3436   40.8924   12.2286 C.3     1  UNL1        0.0063
     18 C           9.7413   41.5501   10.0467 C.ar    1  UNL1        0.1553
     19 C          10.3100   40.7151   11.0019 C.ar    1  UNL1        0.0505
     20 C          11.6216   40.6322   10.5741 C.ar    1  UNL1        0.0588
     21 C          12.6950   39.8502   11.2502 C.3     1  UNL1        0.0518
     22 N          11.7893   41.3625    9.4571 N.ar    1  UNL1       -0.2537
     23 N          10.6456   41.9336    9.1265 N.ar    1  UNL1       -0.1543
     24 C          13.0317   41.5434    8.7206 C.3     1  UNL1        0.1271
     25 C          12.9715   40.7905    7.4055 C.3     1  UNL1        0.0263
     26 C          13.4480   43.0385    6.4957 C.3     1  UNL1        0.0001
     27 C          12.6661   41.7595    6.2836 C.3     1  UNL1        0.0021
@<TRIPOS>BOND
     1    26    27    1
     2    27    25    1
     3    25    24    1
     4    24    22    1
     5    18     2    1
     6    18    19   ar
     7     1     5    1
     8     6     7   ar
     9     8    13    1
    10     9     6   ar
    11    10    14   ar
    12    11     5   ar
    13    15    10    1
    14    15    16    1
    15    16    17    1
    16    17    15    1
    17    20    22   ar
    18    21    20    1
    19    22    23   ar
    20     2     1   am
    21    13    12   ar
    22    13     9   ar
    23    18    23   ar
    24     1     3    2
    25     5     6   ar
    26     7    12   ar
    27     9    14   ar
    28    10    11   ar
    29    19    20   ar
    30     2     4    1
@<TRIPOS>MOLECULE
MolPort-002-782-092 36616315 CSSS00133001696 MCULE-1810885400 PubChem-44822874 ZINC000036616315 ZINC36616315
 27 30 0 0 0
SMALL
GASTEIGER

@<TRIPOS>ATOM
      1 C          12.1259   41.5693    6.9673 C.2     1  UNL1        0.2508
      2 N          11.0796   41.6036    7.9480 N.am    1  UNL1       -0.2644
      3 O          11.8529   41.3784    5.7510 O.2     1  UNL1       -0.2698
      4 H          11.3463   41.7558    8.8834 H       1  UNL1        0.1566
      5 C          13.5275   41.7619    7.3918 C.ar    1  UNL1        0.0594
      6 C          14.1827   40.8977    8.2763 C.ar    1  UNL1        0.0607
      7 C          13.7916   39.7473    8.9450 C.ar    1  UNL1        0.1233
      8 C          17.1695   40.0297   10.1224 C.3     1  UNL1        0.1554
      9 C          15.4736   41.1165    8.6467 C.ar    1  UNL1        0.1607
     10 C          15.6238   43.0374    7.3109 C.ar    1  UNL1        0.0604
     11 C          14.2770   42.8554    6.9107 C.ar    1  UNL1        0.0194
     12 N          14.8535   39.3253    9.6832 N.ar    1  UNL1       -0.1663
     13 N          15.8663   40.1621    9.4955 N.ar    1  UNL1       -0.2320
     14 N          16.2034   42.1643    8.1918 N.ar    1  UNL1       -0.2312
     15 C          16.3900   44.2251    6.8193 C.3     1  UNL1        0.0404
     16 C          17.3829   43.7970    5.7521 C.3     1  UNL1        0.0063
     17 C          17.8643   44.0804    7.1561 C.3     1  UNL1        0.0063
     18 C           9.6814   41.4362    7.6868 C.ar    1  UNL1        0.1553
     19 C           9.1008   40.3896    6.9794 C.ar    1  UNL1        0.0505
     20 C           7.7585   40.7156    7.0241 C.ar    1  UNL1        0.0588
     21 C           6.6625   39.9178    6.4051 C.3     1  UNL1        0.0518
     22 N           7.5846   41.8608    7.7079 N.ar    1  UNL1       -0.2537
     23 N           8.7558   42.3146    8.1151 N.ar    1  UNL1       -0.1543
     24 C           6.3200   42.5390    7.9514 C.3     1  UNL1        0.1271
     25 C           6.2792   43.8519    7.1933 C.3     1  UNL1        0.0263
     26 C           4.2697   43.8579    8.6321 C.3     1  UNL1        0.0001
     27 C           5.1213   44.6877    7.6949 C.3     1  UNL1        0.0021
@<TRIPOS>BOND
     1    26    27    1
     2    27    25    1
     3    25    24    1
     4    24    22    1
     5    18     2    1
     6    18    19   ar
     7     1     5    1
     8     6     7   ar
     9     8    13    1
    10     9     6   ar
    11    10    14   ar
    12    11     5   ar
    13    15    10    1
    14    15    16    1
    15    16    17    1
    16    17    15    1
    17    20    22   ar
    18    21    20    1
    19    22    23   ar
    20     2     1   am
    21    13    12   ar
    22    13     9   ar
    23    18    23   ar
    24     1     3    2
    25     5     6   ar
    26     7    12   ar
    27     9    14   ar
    28    10    11   ar
    29    19    20   ar
    30     2     4    1
@<TRIPOS>MOLECULE
MolPort-002-782-092 36616315 CSSS00133001696 MCULE-1810885400 PubChem-44822874 ZINC000036616315 ZINC36616315
 27 30 0 0 0
SMALL
GASTEIGER

@<TRIPOS>ATOM
      1 C           8.8778   41.2542    9.0591 C.2     1  UNL1        0.2508
      2 N           9.9242   41.6451    9.9590 N.am    1  UNL1       -0.2644
      3 O           9.1132   40.4437    8.1221 O.2     1  UNL1       -0.2698
      4 H           9.6878   42.2803   10.6731 H       1  UNL1        0.1566
      5 C           7.5196   41.8065    9.2388 C.ar    1  UNL1        0.0594
      6 C           6.9694   42.7714    8.3877 C.ar    1  UNL1        0.0607
      7 C           7.4453   43.4284    7.2628 C.ar    1  UNL1        0.1233
      8 C           4.1906   44.9175    7.5184 C.3     1  UNL1        0.1554
      9 C           5.7157   43.2586    8.5940 C.ar    1  UNL1        0.1607
     10 C           5.4002   41.8951   10.4751 C.ar    1  UNL1        0.0604
     11 C           6.7059   41.3721   10.3056 C.ar    1  UNL1        0.0194
     12 N           6.4675   44.2757    6.8427 N.ar    1  UNL1       -0.1663
     13 N           5.4250   44.1651    7.6563 N.ar    1  UNL1       -0.2320
     14 N           4.9250   42.8495    9.6163 N.ar    1  UNL1       -0.2312
     15 C           4.5671   41.4494   11.6355 C.3     1  UNL1        0.0404
     16 C           3.7185   40.2541   11.2367 C.3     1  UNL1        0.0063
     17 C           3.0903   41.6256   11.3255 C.3     1  UNL1        0.0063
     18 C          11.2823   41.1931    9.9108 C.ar    1  UNL1        0.1553
     19 C          11.8887   40.3265   10.8133 C.ar    1  UNL1        0.0505
     20 C          13.1725   40.2318   10.3102 C.ar    1  UNL1        0.0588
     21 C          14.2679   39.4163   10.9067 C.3     1  UNL1        0.0518
     22 N          13.2902   40.9851    9.2021 N.ar    1  UNL1       -0.2537
     23 N          12.1402   41.5828    8.9497 N.ar    1  UNL1       -0.1543
     24 C          14.4922   41.1624    8.4007 C.3     1  UNL1        0.1271
     25 C          14.1712   41.9577    7.1499 C.3     1  UNL1        0.0263
     26 C          14.8842   43.8438    5.7206 C.3     1  UNL1        0.0001
     27 C          15.2321   43.0166    6.9399 C.3     1  UNL1        0.0021
@<TRIPOS>BOND
     1    26    27    1
     2    27    25    1
     3    25    24    1
     4    24    22    1
     5    18     2    1
     6    18    19   ar
     7     1     5    1
     8     6     7   ar
     9     8    13    1
    10     9     6   ar
    11    10    14   ar
    12    11     5   ar
    13    15    10    1
    14    15    16    1
    15    16    17    1
    16    17    15    1
    17    20    22   ar
    18    21    20    1
    19    22    23   ar
    20     2     1   am
    21    13    12   ar
    22    13     9   ar
    23    18    23   ar
    24     1     3    2
    25     5     6   ar
    26     7    12   ar
    27     9    14   ar
    28    10    11   ar
    29    19    20   ar
    30     2     4    1
