@<TRIPOS>MOLECULE
MolPort-002-624-954 2447586 LN00658684 PubChem-1621928 ZINC000002447586 ZINC02447586
 30 33 0 0 0
SMALL
GASTEIGER

@<TRIPOS>ATOM
      1 C          12.0061   41.1011    6.2407 C.ar    1  UNL1        0.1569
      2 C          12.3744   40.3867    7.3703 C.ar    1  UNL1        0.0689
      3 C          13.4293   40.4725    8.2719 C.ar    1  UNL1        0.0074
      4 C          13.4806   39.5045    9.2898 C.ar    1  UNL1        0.0176
      5 C          14.5056   39.5399   10.2367 C.ar    1  UNL1        0.0015
      6 C          14.5575   38.5767   11.2472 C.ar    1  UNL1       -0.0002
      7 C          13.5867   37.5731   11.3160 C.ar    1  UNL1       -0.0028
      8 C          12.5519   37.5179   10.3768 C.ar    1  UNL1       -0.0042
      9 C          11.5384   36.4299   10.4840 C.3     1  UNL1        0.0326
     10 C          12.4842   38.4796    9.3545 C.ar    1  UNL1        0.0789
     11 C          11.4512   39.3869    7.4530 C.ar    1  UNL1        0.1620
     12 N          10.5848   39.4745    6.4301 N.ar    1  UNL1       -0.2329
     13 N          10.9188   40.5175    5.6785 N.ar    1  UNL1       -0.1527
     14 N          11.4838   38.4368    8.4203 N.ar    1  UNL1       -0.2271
     15 C          13.1602   43.3752    6.3462 C.2     1  UNL1        0.2717
     16 N          12.6783   42.2210    5.6518 N.am    1  UNL1       -0.2648
     17 O          12.7750   43.6367    7.5158 O.2     1  UNL1       -0.2707
     18 H          12.8220   42.1936    4.6783 H       1  UNL1        0.1564
     19 C          14.0568   44.3327    5.6396 C.3     1  UNL1        0.2897
     20 O          15.3615   43.7783    5.5028 O.3     1  UNL1       -0.4656
     21 C          16.2030   43.5161    6.5896 C.ar    1  UNL1        0.1393
     22 C          17.3165   44.3244    6.8731 C.ar    1  UNL1        0.0369
     23 C          18.1385   44.0341    7.9658 C.ar    1  UNL1        0.0031
     24 C          17.8548   42.9344    8.7801 C.ar    1  UNL1        0.0002
     25 C          16.7500   42.1251    8.5014 C.ar    1  UNL1        0.0031
     26 C          15.9275   42.4157    7.4086 C.ar    1  UNL1        0.0369
     27 C           9.4530   38.6021    6.1552 C.3     1  UNL1        0.1292
     28 C           8.2901   38.9429    7.0738 C.3     1  UNL1        0.0264
     29 C           6.4900   40.6669    7.1096 C.3     1  UNL1        0.0001
     30 C           7.1629   39.5853    6.2856 C.3     1  UNL1        0.0021
@<TRIPOS>BOND
     1    29    30    1
     2    30    28    1
     3    28    27    1
     4    27    12    1
     5     1    16    1
     6     1     2   ar
     7    19    15    1
     8    19    20    1
     9    21    20    1
    10    22    23   ar
    11    24    25   ar
    12    26    21   ar
    13     3     4   ar
    14     5     6   ar
    15     7     8   ar
    16     9     8    1
    17    10    14   ar
    18    10     4   ar
    19    11    12   ar
    20    11     2   ar
    21    12    13   ar
    22    16    15   am
    23     1    13   ar
    24    15    17    2
    25    21    22   ar
    26    23    24   ar
    27    25    26   ar
    28     2     3   ar
    29     4     5   ar
    30     6     7   ar
    31     8    10   ar
    32    11    14   ar
    33    16    18    1
@<TRIPOS>MOLECULE
MolPort-002-624-954 2447586 LN00658684 PubChem-1621928 ZINC000002447586 ZINC02447586
 30 33 0 0 0
SMALL
GASTEIGER

@<TRIPOS>ATOM
      1 C          12.1059   41.8055    8.7144 C.ar    1  UNL1        0.1569
      2 C          12.3886   40.4716    8.9651 C.ar    1  UNL1        0.0689
      3 C          13.4155   39.6107    8.5942 C.ar    1  UNL1        0.0074
      4 C          13.3167   38.2758    9.0231 C.ar    1  UNL1        0.0176
      5 C          14.3197   37.3612    8.6973 C.ar    1  UNL1        0.0015
      6 C          14.2206   36.0341    9.1221 C.ar    1  UNL1       -0.0002
      7 C          13.1189   35.6139    9.8732 C.ar    1  UNL1       -0.0028
      8 C          12.1019   36.5131   10.2096 C.ar    1  UNL1       -0.0042
      9 C          10.9429   36.0241   11.0095 C.3     1  UNL1        0.0326
     10 C          12.1864   37.8519    9.7913 C.ar    1  UNL1        0.0789
     11 C          11.3184   40.0294    9.6848 C.ar    1  UNL1        0.1620
     12 N          10.4308   41.0243    9.8485 N.ar    1  UNL1       -0.2329
     13 N          10.9006   42.1151    9.2534 N.ar    1  UNL1       -0.1527
     14 N          11.1962   38.7450   10.1030 N.ar    1  UNL1       -0.2271
     15 C          12.9827   42.7451    6.5093 C.2     1  UNL1        0.2717
     16 N          12.8699   42.7339    7.9354 N.am    1  UNL1       -0.2648
     17 O          12.6387   41.7472    5.8233 O.2     1  UNL1       -0.2707
     18 H          13.3635   43.4292    8.4275 H       1  UNL1        0.1564
     19 C          13.6053   43.9182    5.8338 C.3     1  UNL1        0.2897
     20 O          14.9752   43.6535    5.5479 O.3     1  UNL1       -0.4656
     21 C          15.9432   43.4576    6.5391 C.ar    1  UNL1        0.1393
     22 C          15.8499   42.4048    7.4646 C.ar    1  UNL1        0.0369
     23 C          16.8331   42.2378    8.4439 C.ar    1  UNL1        0.0031
     24 C          17.9138   43.1217    8.5061 C.ar    1  UNL1        0.0002
     25 C          18.0106   44.1726    7.5898 C.ar    1  UNL1        0.0031
     26 C          17.0272   44.3394    6.6099 C.ar    1  UNL1        0.0369
     27 C           9.1605   40.9661   10.5561 C.3     1  UNL1        0.1292
     28 C           8.0984   41.7452    9.7964 C.3     1  UNL1        0.0264
     29 C           7.7809   41.8634    7.3268 C.3     1  UNL1        0.0001
     30 C           7.6671   40.9826    8.5568 C.3     1  UNL1        0.0021
@<TRIPOS>BOND
     1    29    30    1
     2    30    28    1
     3    28    27    1
     4    27    12    1
     5     1    16    1
     6     1     2   ar
     7    19    15    1
     8    19    20    1
     9    21    20    1
    10    22    23   ar
    11    24    25   ar
    12    26    21   ar
    13     3     4   ar
    14     5     6   ar
    15     7     8   ar
    16     9     8    1
    17    10    14   ar
    18    10     4   ar
    19    11    12   ar
    20    11     2   ar
    21    12    13   ar
    22    16    15   am
    23     1    13   ar
    24    15    17    2
    25    21    22   ar
    26    23    24   ar
    27    25    26   ar
    28     2     3   ar
    29     4     5   ar
    30     6     7   ar
    31     8    10   ar
    32    11    14   ar
    33    16    18    1
@<TRIPOS>MOLECULE
MolPort-002-624-954 2447586 LN00658684 PubChem-1621928 ZINC000002447586 ZINC02447586
 30 33 0 0 0
SMALL
GASTEIGER

@<TRIPOS>ATOM
      1 C          12.3975   42.3698    6.6064 C.ar    1  UNL1        0.1569
      2 C          13.2638   41.7204    7.4723 C.ar    1  UNL1        0.0689
      3 C          13.0941   40.8521    8.5449 C.ar    1  UNL1        0.0074
      4 C          14.2545   40.4362    9.2203 C.ar    1  UNL1        0.0176
      5 C          14.1574   39.5541   10.2979 C.ar    1  UNL1        0.0015
      6 C          15.3106   39.1423   10.9703 C.ar    1  UNL1       -0.0002
      7 C          16.5658   39.6102   10.5704 C.ar    1  UNL1       -0.0028
      8 C          16.6859   40.4954    9.4944 C.ar    1  UNL1       -0.0042
      9 C          18.0425   40.9728    9.1017 C.3     1  UNL1        0.0326
     10 C          15.5363   40.9190    8.8064 C.ar    1  UNL1        0.0789
     11 C          14.4995   42.1725    7.1153 C.ar    1  UNL1        0.1620
     12 N          14.3936   43.0545    6.1076 N.ar    1  UNL1       -0.2329
     13 N          13.1102   43.1869    5.7918 N.ar    1  UNL1       -0.1527
     14 N          15.6327   41.7925    7.7562 N.ar    1  UNL1       -0.2271
     15 C          10.1708   41.4054    5.8151 C.2     1  UNL1        0.2717
     16 N          10.9662   42.3098    6.5871 N.am    1  UNL1       -0.2648
     17 O          10.6683   40.7612    4.8547 O.2     1  UNL1       -0.2707
     18 H          10.4850   42.9510    7.1585 H       1  UNL1        0.1564
     19 C           8.7107   41.2964    6.0914 C.3     1  UNL1        0.2897
     20 O           8.4847   41.1060    7.4846 O.3     1  UNL1       -0.4656
     21 C           9.2635   40.2589    8.2807 C.ar    1  UNL1        0.1393
     22 C           9.7216   40.6525    9.5492 C.ar    1  UNL1        0.0369
     23 C          10.4994   39.7829   10.3190 C.ar    1  UNL1        0.0031
     24 C          10.8259   38.5166    9.8262 C.ar    1  UNL1        0.0002
     25 C          10.3754   38.1205    8.5638 C.ar    1  UNL1        0.0031
     26 C           9.5969   38.9903    7.7940 C.ar    1  UNL1        0.0369
     27 C          15.4739   43.7640    5.4388 C.3     1  UNL1        0.1292
     28 C          16.2529   44.6020    6.4403 C.3     1  UNL1        0.0264
     29 C          18.2540   44.1076    7.8421 C.3     1  UNL1        0.0001
     30 C          17.7210   44.2160    6.4259 C.3     1  UNL1        0.0021
@<TRIPOS>BOND
     1    29    30    1
     2    30    28    1
     3    28    27    1
     4    27    12    1
     5     1    16    1
     6     1     2   ar
     7    19    15    1
     8    19    20    1
     9    21    20    1
    10    22    23   ar
    11    24    25   ar
    12    26    21   ar
    13     3     4   ar
    14     5     6   ar
    15     7     8   ar
    16     9     8    1
    17    10    14   ar
    18    10     4   ar
    19    11    12   ar
    20    11     2   ar
    21    12    13   ar
    22    16    15   am
    23     1    13   ar
    24    15    17    2
    25    21    22   ar
    26    23    24   ar
    27    25    26   ar
    28     2     3   ar
    29     4     5   ar
    30     6     7   ar
    31     8    10   ar
    32    11    14   ar
    33    16    18    1
@<TRIPOS>MOLECULE
MolPort-002-624-954 2447586 LN00658684 PubChem-1621928 ZINC000002447586 ZINC02447586
 30 33 0 0 0
SMALL
GASTEIGER

@<TRIPOS>ATOM
      1 C          15.1058   41.0986    8.4459 C.ar    1  UNL1        0.1569
      2 C          14.2541   40.0766    8.8357 C.ar    1  UNL1        0.0689
      3 C          12.9268   39.7628    8.5651 C.ar    1  UNL1        0.0074
      4 C          12.3927   38.6337    9.2097 C.ar    1  UNL1        0.0176
      5 C          11.0704   38.2542    8.9728 C.ar    1  UNL1        0.0015
      6 C          10.5392   37.1330    9.6148 C.ar    1  UNL1       -0.0002
      7 C          11.3255   36.3863   10.4972 C.ar    1  UNL1       -0.0028
      8 C          12.6522   36.7495   10.7502 C.ar    1  UNL1       -0.0042
      9 C          13.4558   35.9282   11.7000 C.3     1  UNL1        0.0326
     10 C          13.2026   37.8739   10.1120 C.ar    1  UNL1        0.0789
     11 C          14.9918   39.3389    9.7134 C.ar    1  UNL1        0.1620
     12 N          16.2100   39.8848    9.8635 N.ar    1  UNL1       -0.2329
     13 N          16.2885   40.9661    9.0960 N.ar    1  UNL1       -0.1527
     14 N          14.4968   38.2506   10.3538 N.ar    1  UNL1       -0.2271
     15 C          13.6963   42.3065    6.6942 C.2     1  UNL1        0.2717
     16 N          14.8148   42.2023    7.5799 N.am    1  UNL1       -0.2648
     17 O          13.0135   41.2938    6.3892 O.2     1  UNL1       -0.2707
     18 H          15.4434   42.9598    7.5959 H       1  UNL1        0.1564
     19 C          13.3937   43.6148    6.0485 C.3     1  UNL1        0.2897
     20 O          14.3429   44.5964    6.4534 O.3     1  UNL1       -0.4656
     21 C          15.7156   44.3435    6.5517 C.ar    1  UNL1        0.1393
     22 C          16.3859   44.3756    7.7859 C.ar    1  UNL1        0.0369
     23 C          17.7586   44.1200    7.8496 C.ar    1  UNL1        0.0031
     24 C          18.4702   43.8330    6.6816 C.ar    1  UNL1        0.0002
     25 C          17.8093   43.8023    5.4505 C.ar    1  UNL1        0.0031
     26 C          16.4361   44.0576    5.3869 C.ar    1  UNL1        0.0369
     27 C          17.2943   39.4045   10.7067 C.3     1  UNL1        0.1292
     28 C          18.4198   38.8461    9.8502 C.3     1  UNL1        0.0264
     29 C          17.7853   36.8995   11.2721 C.3     1  UNL1        0.0001
     30 C          18.5164   37.3405   10.0180 C.3     1  UNL1        0.0021
@<TRIPOS>BOND
     1    29    30    1
     2    30    28    1
     3    28    27    1
     4    27    12    1
     5     1    16    1
     6     1     2   ar
     7    19    15    1
     8    19    20    1
     9    21    20    1
    10    22    23   ar
    11    24    25   ar
    12    26    21   ar
    13     3     4   ar
    14     5     6   ar
    15     7     8   ar
    16     9     8    1
    17    10    14   ar
    18    10     4   ar
    19    11    12   ar
    20    11     2   ar
    21    12    13   ar
    22    16    15   am
    23     1    13   ar
    24    15    17    2
    25    21    22   ar
    26    23    24   ar
    27    25    26   ar
    28     2     3   ar
    29     4     5   ar
    30     6     7   ar
    31     8    10   ar
    32    11    14   ar
    33    16    18    1
@<TRIPOS>MOLECULE
MolPort-002-624-954 2447586 LN00658684 PubChem-1621928 ZINC000002447586 ZINC02447586
 30 33 0 0 0
SMALL
GASTEIGER

@<TRIPOS>ATOM
      1 C          12.9729   39.7217    9.0081 C.ar    1  UNL1        0.1569
      2 C          13.8599   40.6602    8.5036 C.ar    1  UNL1        0.0689
      3 C          15.1961   40.9604    8.7440 C.ar    1  UNL1        0.0074
      4 C          15.7421   42.0506    8.0446 C.ar    1  UNL1        0.0176
      5 C          17.0813   42.3987    8.2285 C.ar    1  UNL1        0.0015
      6 C          17.6234   43.4833    7.5348 C.ar    1  UNL1       -0.0002
      7 C          16.8303   44.2260    6.6551 C.ar    1  UNL1       -0.0028
      8 C          15.4859   43.8956    6.4569 C.ar    1  UNL1       -0.0042
      9 C          14.6740   44.7147    5.5122 C.3     1  UNL1        0.0326
     10 C          14.9250   42.8070    7.1459 C.ar    1  UNL1        0.0789
     11 C          13.1068   41.4125    7.6518 C.ar    1  UNL1        0.1620
     12 N          11.8374   40.9730    7.6490 N.ar    1  UNL1       -0.2329
     13 N          11.7431   39.9413    8.4804 N.ar    1  UNL1       -0.1527
     14 N          13.6082   42.4736    6.9720 N.ar    1  UNL1       -0.2271
     15 C          12.6956   37.3913   10.0113 C.2     1  UNL1        0.2717
     16 N          13.2244   38.7206   10.0016 N.am    1  UNL1       -0.2648
     17 O          11.7201   37.0756    9.2809 O.2     1  UNL1       -0.2707
     18 H          13.8164   38.9708   10.7473 H       1  UNL1        0.1564
     19 C          13.2459   36.3920   10.9698 C.3     1  UNL1        0.2897
     20 O          13.6627   35.2201   10.2761 O.3     1  UNL1       -0.4656
     21 C          14.7446   35.1960    9.3889 C.ar    1  UNL1        0.1393
     22 C          14.9642   34.1131    8.5214 C.ar    1  UNL1        0.0369
     23 C          16.0557   34.1192    7.6483 C.ar    1  UNL1        0.0031
     24 C          16.9352   35.2053    7.6378 C.ar    1  UNL1        0.0002
     25 C          16.7234   36.2843    8.5005 C.ar    1  UNL1        0.0031
     26 C          15.6312   36.2783    9.3735 C.ar    1  UNL1        0.0369
     27 C          10.7224   41.5012    6.8773 C.3     1  UNL1        0.1292
     28 C           9.7151   42.1713    7.7985 C.3     1  UNL1        0.0264
     29 C           7.7364   41.4720    9.1437 C.3     1  UNL1        0.0001
     30 C           8.3968   41.4189    7.7789 C.3     1  UNL1        0.0021
@<TRIPOS>BOND
     1    29    30    1
     2    30    28    1
     3    28    27    1
     4    27    12    1
     5     1    16    1
     6     1     2   ar
     7    19    15    1
     8    19    20    1
     9    21    20    1
    10    22    23   ar
    11    24    25   ar
    12    26    21   ar
    13     3     4   ar
    14     5     6   ar
    15     7     8   ar
    16     9     8    1
    17    10    14   ar
    18    10     4   ar
    19    11    12   ar
    20    11     2   ar
    21    12    13   ar
    22    16    15   am
    23     1    13   ar
    24    15    17    2
    25    21    22   ar
    26    23    24   ar
    27    25    26   ar
    28     2     3   ar
    29     4     5   ar
    30     6     7   ar
    31     8    10   ar
    32    11    14   ar
    33    16    18    1
@<TRIPOS>MOLECULE
MolPort-002-624-954 2447586 LN00658684 PubChem-1621928 ZINC000002447586 ZINC02447586
 30 33 0 0 0
SMALL
GASTEIGER

@<TRIPOS>ATOM
      1 C          12.7708   39.8451    8.8571 C.ar    1  UNL1        0.1569
      2 C          13.7494   40.7089    8.3900 C.ar    1  UNL1        0.0689
      3 C          15.0411   41.0236    8.7971 C.ar    1  UNL1        0.0074
      4 C          15.7165   42.0179    8.0685 C.ar    1  UNL1        0.0176
      5 C          17.0211   42.3733    8.4152 C.ar    1  UNL1        0.0015
      6 C          17.6917   43.3628    7.6921 C.ar    1  UNL1       -0.0002
      7 C          17.0622   44.0027    6.6203 C.ar    1  UNL1       -0.0028
      8 C          15.7551   43.6631    6.2568 C.ar    1  UNL1       -0.0042
      9 C          15.1190   44.3713    5.1095 C.3     1  UNL1        0.0326
     10 C          15.0665   42.6693    6.9728 C.ar    1  UNL1        0.0789
     11 C          13.1553   41.3613    7.3506 C.ar    1  UNL1        0.1620
     12 N          11.8897   40.9359    7.2030 N.ar    1  UNL1       -0.2329
     13 N          11.6420   40.0114    8.1241 N.ar    1  UNL1       -0.1527
     14 N          13.7829   42.3294    6.6377 N.ar    1  UNL1       -0.2271
     15 C          13.2966   37.6111    9.9737 C.2     1  UNL1        0.2717
     16 N          12.8409   38.9671    9.9870 N.am    1  UNL1       -0.2648
     17 O          13.4109   36.9755    8.8931 O.2     1  UNL1       -0.2707
     18 H          12.5480   39.3309   10.8537 H       1  UNL1        0.1564
     19 C          13.5481   36.9111   11.2647 C.3     1  UNL1        0.2897
     20 O          14.9212   36.5480   11.3702 O.3     1  UNL1       -0.4656
     21 C          15.9718   37.4090   11.0339 C.ar    1  UNL1        0.1393
     22 C          16.9161   37.0724   10.0497 C.ar    1  UNL1        0.0369
     23 C          17.9550   37.9543    9.7385 C.ar    1  UNL1        0.0031
     24 C          18.0582   39.1759   10.4092 C.ar    1  UNL1        0.0002
     25 C          17.1233   39.5150   11.3913 C.ar    1  UNL1        0.0031
     26 C          16.0839   38.6330   11.7023 C.ar    1  UNL1        0.0369
     27 C          10.9199   41.3786    6.2125 C.3     1  UNL1        0.1292
     28 C          11.1878   40.7054    4.8756 C.3     1  UNL1        0.0264
     29 C           9.7264   39.2394    3.4867 C.3     1  UNL1        0.0001
     30 C          10.4711   39.3692    4.8021 C.3     1  UNL1        0.0021
@<TRIPOS>BOND
     1    29    30    1
     2    30    28    1
     3    28    27    1
     4    27    12    1
     5     1    16    1
     6     1     2   ar
     7    19    15    1
     8    19    20    1
     9    21    20    1
    10    22    23   ar
    11    24    25   ar
    12    26    21   ar
    13     3     4   ar
    14     5     6   ar
    15     7     8   ar
    16     9     8    1
    17    10    14   ar
    18    10     4   ar
    19    11    12   ar
    20    11     2   ar
    21    12    13   ar
    22    16    15   am
    23     1    13   ar
    24    15    17    2
    25    21    22   ar
    26    23    24   ar
    27    25    26   ar
    28     2     3   ar
    29     4     5   ar
    30     6     7   ar
    31     8    10   ar
    32    11    14   ar
    33    16    18    1
@<TRIPOS>MOLECULE
MolPort-002-624-954 2447586 LN00658684 PubChem-1621928 ZINC000002447586 ZINC02447586
 30 33 0 0 0
SMALL
GASTEIGER

@<TRIPOS>ATOM
      1 C          11.9970   42.0747    7.3136 C.ar    1  UNL1        0.1569
      2 C          12.7583   41.3429    8.2118 C.ar    1  UNL1        0.0689
      3 C          12.4612   40.5354    9.3041 C.ar    1  UNL1        0.0074
      4 C          13.5474   39.9911   10.0108 C.ar    1  UNL1        0.0176
      5 C          13.3204   39.1607   11.1097 C.ar    1  UNL1        0.0015
      6 C          14.4000   38.6213   11.8132 C.ar    1  UNL1       -0.0002
      7 C          15.7113   38.9094   11.4233 C.ar    1  UNL1       -0.0028
      8 C          15.9616   39.7400   10.3263 C.ar    1  UNL1       -0.0042
      9 C          17.3744   40.0244    9.9451 C.3     1  UNL1        0.0326
     10 C          14.8872   40.2901    9.6069 C.ar    1  UNL1        0.0789
     11 C          14.0476   41.6191    7.8648 C.ar    1  UNL1        0.1620
     12 N          14.0725   42.4779    6.8321 N.ar    1  UNL1       -0.2329
     13 N          12.8220   42.7678    6.4903 N.ar    1  UNL1       -0.1527
     14 N          15.1121   41.1129    8.5356 N.ar    1  UNL1       -0.2271
     15 C           9.7126   41.7222    6.2311 C.2     1  UNL1        0.2717
     16 N          10.5706   42.2017    7.2706 N.am    1  UNL1       -0.2648
     17 O          10.1761   41.3904    5.1086 O.2     1  UNL1       -0.2707
     18 H          10.1406   42.6622    8.0271 H       1  UNL1        0.1564
     19 C           8.2387   41.7058    6.4483 C.3     1  UNL1        0.2897
     20 O           7.8577   42.7583    7.3288 O.3     1  UNL1       -0.4656
     21 C           8.0857   42.7261    8.7090 C.ar    1  UNL1        0.1393
     22 C           8.7458   43.7736    9.3730 C.ar    1  UNL1        0.0369
     23 C           8.9595   43.7099   10.7528 C.ar    1  UNL1        0.0031
     24 C           8.5176   42.5995   11.4772 C.ar    1  UNL1        0.0002
     25 C           7.8628   41.5530   10.8216 C.ar    1  UNL1        0.0031
     26 C           7.6486   41.6171    9.4414 C.ar    1  UNL1        0.0369
     27 C          15.2457   43.0206    6.1639 C.3     1  UNL1        0.1292
     28 C          15.8052   44.1942    6.9524 C.3     1  UNL1        0.0264
     29 C          17.6747   43.5429    8.4672 C.3     1  UNL1        0.0001
     30 C          17.3116   44.0693    7.0914 C.3     1  UNL1        0.0021
@<TRIPOS>BOND
     1    29    30    1
     2    30    28    1
     3    28    27    1
     4    27    12    1
     5     1    16    1
     6     1     2   ar
     7    19    15    1
     8    19    20    1
     9    21    20    1
    10    22    23   ar
    11    24    25   ar
    12    26    21   ar
    13     3     4   ar
    14     5     6   ar
    15     7     8   ar
    16     9     8    1
    17    10    14   ar
    18    10     4   ar
    19    11    12   ar
    20    11     2   ar
    21    12    13   ar
    22    16    15   am
    23     1    13   ar
    24    15    17    2
    25    21    22   ar
    26    23    24   ar
    27    25    26   ar
    28     2     3   ar
    29     4     5   ar
    30     6     7   ar
    31     8    10   ar
    32    11    14   ar
    33    16    18    1
@<TRIPOS>MOLECULE
MolPort-002-624-954 2447586 LN00658684 PubChem-1621928 ZINC000002447586 ZINC02447586
 30 33 0 0 0
SMALL
GASTEIGER

@<TRIPOS>ATOM
      1 C          11.7629   41.7050    8.3024 C.ar    1  UNL1        0.1569
      2 C          12.7281   41.0164    9.0208 C.ar    1  UNL1        0.0689
      3 C          12.7054   40.2173   10.1584 C.ar    1  UNL1        0.0074
      4 C          13.9389   39.7244   10.6181 C.ar    1  UNL1        0.0176
      5 C          13.9869   38.9051   11.7472 C.ar    1  UNL1        0.0015
      6 C          15.2130   38.4168   12.2050 C.ar    1  UNL1       -0.0002
      7 C          16.3970   38.7454   11.5381 C.ar    1  UNL1       -0.0028
      8 C          16.3721   39.5659   10.4058 C.ar    1  UNL1       -0.0042
      9 C          17.6572   39.8947    9.7254 C.3     1  UNL1        0.0326
     10 C          15.1471   40.0648    9.9313 C.ar    1  UNL1        0.0789
     11 C          13.9003   41.3331    8.4006 C.ar    1  UNL1        0.1620
     12 N          13.6682   42.1747    7.3797 N.ar    1  UNL1       -0.2329
     13 N          12.3631   42.4135    7.3140 N.ar    1  UNL1       -0.1527
     14 N          15.1033   40.8770    8.8296 N.ar    1  UNL1       -0.2271
     15 C           9.7090   42.7322    9.4163 C.2     1  UNL1        0.2717
     16 N          10.3570   41.7798    8.5679 N.am    1  UNL1       -0.2648
     17 O          10.3668   43.4222   10.2384 O.2     1  UNL1       -0.2707
     18 H           9.7832   41.1135    8.1251 H       1  UNL1        0.1564
     19 C           8.2231   42.8403    9.3936 C.3     1  UNL1        0.2897
     20 O           7.6425   41.8391   10.2235 O.3     1  UNL1       -0.4656
     21 C           6.2809   41.5174   10.2017 C.ar    1  UNL1        0.1393
     22 C           5.5308   41.5606    9.0145 C.ar    1  UNL1        0.0369
     23 C           4.1716   41.2350    9.0272 C.ar    1  UNL1        0.0031
     24 C           3.5530   40.8665   10.2249 C.ar    1  UNL1        0.0002
     25 C           4.2935   40.8245   11.4096 C.ar    1  UNL1        0.0031
     26 C           5.6533   41.1498   11.3968 C.ar    1  UNL1        0.0369
     27 C          14.6475   42.7480    6.4687 C.3     1  UNL1        0.1292
     28 C          14.0934   44.0097    5.8258 C.3     1  UNL1        0.0264
     29 C          16.4766   44.5727    6.2917 C.3     1  UNL1        0.0001
     30 C          15.1302   45.1181    5.8543 C.3     1  UNL1        0.0021
@<TRIPOS>BOND
     1    29    30    1
     2    30    28    1
     3    28    27    1
     4    27    12    1
     5     1    16    1
     6     1     2   ar
     7    19    15    1
     8    19    20    1
     9    21    20    1
    10    22    23   ar
    11    24    25   ar
    12    26    21   ar
    13     3     4   ar
    14     5     6   ar
    15     7     8   ar
    16     9     8    1
    17    10    14   ar
    18    10     4   ar
    19    11    12   ar
    20    11     2   ar
    21    12    13   ar
    22    16    15   am
    23     1    13   ar
    24    15    17    2
    25    21    22   ar
    26    23    24   ar
    27    25    26   ar
    28     2     3   ar
    29     4     5   ar
    30     6     7   ar
    31     8    10   ar
    32    11    14   ar
    33    16    18    1
@<TRIPOS>MOLECULE
MolPort-002-624-954 2447586 LN00658684 PubChem-1621928 ZINC000002447586 ZINC02447586
 30 33 0 0 0
SMALL
GASTEIGER

@<TRIPOS>ATOM
      1 C          12.0794   40.2972    8.8475 C.ar    1  UNL1        0.1569
      2 C          12.9918   41.1333    8.2227 C.ar    1  UNL1        0.0689
      3 C          12.9284   42.0025    7.1394 C.ar    1  UNL1        0.0074
      4 C          14.1181   42.6552    6.7729 C.ar    1  UNL1        0.0176
      5 C          14.1223   43.5514    5.7027 C.ar    1  UNL1        0.0015
      6 C          15.3051   44.1987    5.3375 C.ar    1  UNL1       -0.0002
      7 C          16.4895   43.9531    6.0385 C.ar    1  UNL1       -0.0028
      8 C          16.5082   43.0580    7.1130 C.ar    1  UNL1       -0.0042
      9 C          17.7925   42.8221    7.8324 C.3     1  UNL1        0.0326
     10 C          15.3270   42.3992    7.4942 C.ar    1  UNL1        0.0789
     11 C          14.1651   40.9015    8.8774 C.ar    1  UNL1        0.1620
     12 N          13.9851   39.9710    9.8294 N.ar    1  UNL1       -0.2329
     13 N          12.7126   39.5901    9.8160 N.ar    1  UNL1       -0.1527
     14 N          15.3274   41.5124    8.5378 N.ar    1  UNL1       -0.2271
     15 C           9.6331   41.0155    8.7296 C.2     1  UNL1        0.2717
     16 N          10.7025   40.0910    8.5096 N.am    1  UNL1       -0.2648
     17 O           9.7707   41.9929    9.5111 O.2     1  UNL1       -0.2707
     18 H          10.4705   39.2329    8.0866 H       1  UNL1        0.1564
     19 C           8.3070   40.7639    8.0986 C.3     1  UNL1        0.2897
     20 O           8.3392   41.1246    6.7213 O.3     1  UNL1       -0.4656
     21 C           9.0683   40.4177    5.7586 C.ar    1  UNL1        0.1393
     22 C           8.7131   39.1143    5.3733 C.ar    1  UNL1        0.0369
     23 C           9.4637   38.4347    4.4097 C.ar    1  UNL1        0.0031
     24 C          10.5740   39.0515    3.8269 C.ar    1  UNL1        0.0002
     25 C          10.9339   40.3471    4.2083 C.ar    1  UNL1        0.0031
     26 C          10.1828   41.0270    5.1718 C.ar    1  UNL1        0.0369
     27 C          14.9831   39.4439   10.7480 C.3     1  UNL1        0.1292
     28 C          14.3099   38.6610   11.8643 C.3     1  UNL1        0.0264
     29 C          13.5613   36.4760   10.9265 C.3     1  UNL1        0.0001
     30 C          14.6289   37.1820   11.7411 C.3     1  UNL1        0.0021
@<TRIPOS>BOND
     1    29    30    1
     2    30    28    1
     3    28    27    1
     4    27    12    1
     5     1    16    1
     6     1     2   ar
     7    19    15    1
     8    19    20    1
     9    21    20    1
    10    22    23   ar
    11    24    25   ar
    12    26    21   ar
    13     3     4   ar
    14     5     6   ar
    15     7     8   ar
    16     9     8    1
    17    10    14   ar
    18    10     4   ar
    19    11    12   ar
    20    11     2   ar
    21    12    13   ar
    22    16    15   am
    23     1    13   ar
    24    15    17    2
    25    21    22   ar
    26    23    24   ar
    27    25    26   ar
    28     2     3   ar
    29     4     5   ar
    30     6     7   ar
    31     8    10   ar
    32    11    14   ar
    33    16    18    1
@<TRIPOS>MOLECULE
MolPort-002-624-954 2447586 LN00658684 PubChem-1621928 ZINC000002447586 ZINC02447586
 30 33 0 0 0
SMALL
GASTEIGER

@<TRIPOS>ATOM
      1 C           3.8313   41.4285   11.9112 C.ar    1  UNL1        0.1569
      2 C           4.1318   42.2497   10.8355 C.ar    1  UNL1        0.0689
      3 C           3.3832   43.0819   10.0107 C.ar    1  UNL1        0.0074
      4 C           4.0662   43.7302    8.9672 C.ar    1  UNL1        0.0176
      5 C           3.3780   44.5903    8.1099 C.ar    1  UNL1        0.0015
      6 C           4.0566   45.2332    7.0718 C.ar    1  UNL1       -0.0002
      7 C           5.4253   45.0192    6.8843 C.ar    1  UNL1       -0.0028
      8 C           6.1341   44.1605    7.7306 C.ar    1  UNL1       -0.0042
      9 C           7.5921   43.9576    7.4948 C.3     1  UNL1        0.0326
     10 C           5.4671   43.5067    8.7804 C.ar    1  UNL1        0.0789
     11 C           5.4626   42.0479   10.6184 C.ar    1  UNL1        0.1620
     12 N           5.9406   41.1484   11.4941 N.ar    1  UNL1       -0.2329
     13 N           4.9488   40.7584   12.2869 N.ar    1  UNL1       -0.1527
     14 N           6.1420   42.6551    9.6139 N.ar    1  UNL1       -0.2271
     15 C           1.5388   42.1877   12.7374 C.2     1  UNL1        0.2717
     16 N           2.5507   41.2018   12.5123 N.am    1  UNL1       -0.2648
     17 O           1.8062   43.4166   12.6811 O.2     1  UNL1       -0.2707
     18 H           2.3481   40.2814   12.7971 H       1  UNL1        0.1564
     19 C           0.1709   41.7539   13.1383 C.3     1  UNL1        0.2897
     20 O          -0.5040   42.8105   13.8139 O.3     1  UNL1       -0.4656
     21 C          -0.8613   42.7539   15.1656 C.ar    1  UNL1        0.1393
     22 C          -0.0204   43.2550   16.1733 C.ar    1  UNL1        0.0369
     23 C          -0.4063   43.1815   17.5147 C.ar    1  UNL1        0.0031
     24 C          -1.6325   42.6056   17.8579 C.ar    1  UNL1        0.0002
     25 C          -2.4720   42.1029   16.8600 C.ar    1  UNL1        0.0031
     26 C          -2.0862   42.1768   15.5181 C.ar    1  UNL1        0.0369
     27 C           7.3071   40.6590   11.5989 C.3     1  UNL1        0.1292
     28 C           8.1967   41.7139   12.2376 C.3     1  UNL1        0.0264
     29 C           9.5956   41.2753   10.2215 C.3     1  UNL1        0.0001
     30 C           9.1156   42.3315   11.1990 C.3     1  UNL1        0.0021
@<TRIPOS>BOND
     1    29    30    1
     2    30    28    1
     3    28    27    1
     4    27    12    1
     5     1    16    1
     6     1     2   ar
     7    19    15    1
     8    19    20    1
     9    21    20    1
    10    22    23   ar
    11    24    25   ar
    12    26    21   ar
    13     3     4   ar
    14     5     6   ar
    15     7     8   ar
    16     9     8    1
    17    10    14   ar
    18    10     4   ar
    19    11    12   ar
    20    11     2   ar
    21    12    13   ar
    22    16    15   am
    23     1    13   ar
    24    15    17    2
    25    21    22   ar
    26    23    24   ar
    27    25    26   ar
    28     2     3   ar
    29     4     5   ar
    30     6     7   ar
    31     8    10   ar
    32    11    14   ar
    33    16    18    1
