@<TRIPOS>MOLECULE
MolPort-002-004-927 CHEMBL1572894 CSSS00159746572 MCULE-2537895063 PubChem-2943507
 19 20 0 0 0
SMALL
GASTEIGER

@<TRIPOS>ATOM
      1 C           9.7317   40.0863    5.8578 C.ar    1  UNL1        0.1514
      2 C          11.3443   41.5513    6.4026 C.ar    1  UNL1        0.1845
      3 N           9.1162   40.5828    6.9670 N.ar    1  UNL1       -0.1917
      4 N          10.9586   40.6005    5.5291 N.ar    1  UNL1       -0.2076
      5 S          10.1625   41.7291    7.5602 S.2     1  UNL1        0.0492
      6 C          13.7604   42.0198    7.0855 C.2     1  UNL1        0.2570
      7 O          13.7768   41.1186    7.9660 O.2     1  UNL1       -0.2692
      8 N          12.5849   42.2592    6.3010 N.am    1  UNL1       -0.2590
      9 H          12.6352   42.9774    5.6296 H       1  UNL1        0.1571
     10 C          14.9595   42.8344    6.8605 C.ar    1  UNL1        0.0831
     11 C          16.1554   42.7222    7.5526 C.ar    1  UNL1        0.0116
     12 C          17.1235   43.6379    7.1151 C.ar    1  UNL1        0.0076
     13 C          16.7025   44.4730    6.0824 C.ar    1  UNL1        0.0356
     14 S          15.1127   44.0569    5.7227 S.2     1  UNL1       -0.0819
     15 C           9.0954   39.0117    5.0425 C.3     1  UNL1        0.0956
     16 C          10.1934   37.4918    3.4274 C.3     1  UNL1        0.0322
     17 C           9.7429   38.9164    3.6711 C.3     1  UNL1        0.1182
     18 O           8.8262   39.2847    2.6856 O.3     1  UNL1       -0.3840
     19 H           8.0610   38.6894    2.7171 H       1  UNL1        0.2104
@<TRIPOS>BOND
     1    17    16    1
     2    17    18    1
     3    17    15    1
     4    15     1    1
     5     1     4   ar
     6     2     5   ar
     7     2     8    1
     8     6    10    1
     9    10    14   ar
    10    11    12   ar
    11    13    14   ar
    12     3     5   ar
    13     8     6   am
    14     1     3   ar
    15     2     4   ar
    16     6     7    2
    17    10    11   ar
    18    12    13   ar
    19    18    19    1
    20     8     9    1
@<TRIPOS>MOLECULE
MolPort-002-004-927 CHEMBL1572894 CSSS00159746572 MCULE-2537895063 PubChem-2943507
 19 20 0 0 0
SMALL
GASTEIGER

@<TRIPOS>ATOM
      1 C           9.9431   41.1367    7.8945 C.ar    1  UNL1        0.1514
      2 C          12.1865   41.1039    7.9918 C.ar    1  UNL1        0.1845
      3 N          10.0767   39.7822    7.8405 N.ar    1  UNL1       -0.1917
      4 N          11.0885   41.8847    7.9746 N.ar    1  UNL1       -0.2076
      5 S          11.7147   39.5107    7.9031 S.2     1  UNL1        0.0492
      6 C          14.2009   42.3621    7.0524 C.2     1  UNL1        0.2570
      7 O          13.6358   42.6227    5.9567 O.2     1  UNL1       -0.2692
      8 N          13.5200   41.6197    8.0719 N.am    1  UNL1       -0.2590
      9 H          14.0154   41.4483    8.9053 H       1  UNL1        0.1571
     10 C          15.5731   42.8246    7.2874 C.ar    1  UNL1        0.0831
     11 C          16.4888   42.2374    8.1467 C.ar    1  UNL1        0.0116
     12 C          17.7230   42.9034    8.1620 C.ar    1  UNL1        0.0076
     13 C          17.7904   44.0125    7.3214 C.ar    1  UNL1        0.0356
     14 S          16.2962   44.1521    6.5611 S.2     1  UNL1       -0.0819
     15 C           8.5972   41.7780    7.8528 C.3     1  UNL1        0.0956
     16 C           7.1129   43.1112    6.3887 C.3     1  UNL1        0.0322
     17 C           8.1515   42.0102    6.4187 C.3     1  UNL1        0.1182
     18 O           9.2439   42.3858    5.6360 O.3     1  UNL1       -0.3840
     19 H           9.6258   43.2059    5.9861 H       1  UNL1        0.2104
@<TRIPOS>BOND
     1    17    16    1
     2    17    18    1
     3    17    15    1
     4    15     1    1
     5     1     4   ar
     6     2     5   ar
     7     2     8    1
     8     6    10    1
     9    10    14   ar
    10    11    12   ar
    11    13    14   ar
    12     3     5   ar
    13     8     6   am
    14     1     3   ar
    15     2     4   ar
    16     6     7    2
    17    10    11   ar
    18    12    13   ar
    19    18    19    1
    20     8     9    1
@<TRIPOS>MOLECULE
MolPort-002-004-927 CHEMBL1572894 CSSS00159746572 MCULE-2537895063 PubChem-2943507
 19 20 0 0 0
SMALL
GASTEIGER

@<TRIPOS>ATOM
      1 C          14.1719   42.7347    6.2776 C.ar    1  UNL1        0.1514
      2 C          12.2856   41.6554    6.8436 C.ar    1  UNL1        0.1845
      3 N          14.6685   42.1401    7.3981 N.ar    1  UNL1       -0.1917
      4 N          12.8638   42.4861    5.9540 N.ar    1  UNL1       -0.2076
      5 S          13.4032   41.2531    8.0087 S.2     1  UNL1        0.0492
      6 C           9.8455   41.6433    7.5980 C.2     1  UNL1        0.2570
      7 O          10.0410   42.4645    8.5335 O.2     1  UNL1       -0.2692
      8 N          10.9231   41.2248    6.7506 N.am    1  UNL1       -0.2590
      9 H          10.7062   40.5811    6.0379 H       1  UNL1        0.1571
     10 C           8.4980   41.1088    7.3735 C.ar    1  UNL1        0.0831
     11 C           7.3936   41.3333    8.1806 C.ar    1  UNL1        0.0116
     12 C           6.2388   40.6902    7.7115 C.ar    1  UNL1        0.0076
     13 C           6.4214   39.9592    6.5396 C.ar    1  UNL1        0.0356
     14 S           8.0361   40.1239    6.0969 S.2     1  UNL1       -0.0819
     15 C          15.0213   43.6343    5.4448 C.3     1  UNL1        0.0956
     16 C          17.2714   44.1260    6.3500 C.3     1  UNL1        0.0322
     17 C          15.8278   44.5805    6.3186 C.3     1  UNL1        0.1182
     18 O          15.7635   45.8755    5.8029 O.3     1  UNL1       -0.3840
     19 H          16.1291   45.8843    4.9045 H       1  UNL1        0.2104
@<TRIPOS>BOND
     1    17    16    1
     2    17    18    1
     3    17    15    1
     4    15     1    1
     5     1     4   ar
     6     2     5   ar
     7     2     8    1
     8     6    10    1
     9    10    14   ar
    10    11    12   ar
    11    13    14   ar
    12     3     5   ar
    13     8     6   am
    14     1     3   ar
    15     2     4   ar
    16     6     7    2
    17    10    11   ar
    18    12    13   ar
    19    18    19    1
    20     8     9    1
@<TRIPOS>MOLECULE
MolPort-002-004-927 CHEMBL1572894 CSSS00159746572 MCULE-2537895063 PubChem-2943507
 19 20 0 0 0
SMALL
GASTEIGER

@<TRIPOS>ATOM
      1 C          14.7904   42.5329    7.1102 C.ar    1  UNL1        0.1514
      2 C          12.6145   42.2947    6.6079 C.ar    1  UNL1        0.1845
      3 N          14.8079   43.3093    5.9910 N.ar    1  UNL1       -0.1917
      4 N          13.5972   41.9617    7.4677 N.ar    1  UNL1       -0.2076
      5 S          13.2454   43.2820    5.4266 S.2     1  UNL1        0.0492
      6 C          10.5635   40.9938    5.8179 C.2     1  UNL1        0.2570
      7 O          11.1263   40.5736    4.7718 O.2     1  UNL1       -0.2692
      8 N          11.2633   41.8393    6.7398 N.am    1  UNL1       -0.2590
      9 H          10.7688   42.1345    7.5382 H       1  UNL1        0.1571
     10 C           9.1744   40.6127    6.0959 C.ar    1  UNL1        0.0831
     11 C           8.6148   39.3664    5.8609 C.ar    1  UNL1        0.0116
     12 C           7.2629   39.3005    6.2283 C.ar    1  UNL1        0.0076
     13 C           6.7492   40.4850    6.7521 C.ar    1  UNL1        0.0356
     14 S           7.9980   41.6122    6.7513 S.2     1  UNL1       -0.0819
     15 C          16.0310   42.3041    7.9057 C.3     1  UNL1        0.0956
     16 C          17.6857   43.7277    9.0717 C.3     1  UNL1        0.0322
     17 C          16.9976   43.4662    7.7490 C.3     1  UNL1        0.1182
     18 O          17.9569   43.1600    6.7830 O.3     1  UNL1       -0.3840
     19 H          18.4510   42.3714    7.0566 H       1  UNL1        0.2104
@<TRIPOS>BOND
     1    17    16    1
     2    17    18    1
     3    17    15    1
     4    15     1    1
     5     1     4   ar
     6     2     5   ar
     7     2     8    1
     8     6    10    1
     9    10    14   ar
    10    11    12   ar
    11    13    14   ar
    12     3     5   ar
    13     8     6   am
    14     1     3   ar
    15     2     4   ar
    16     6     7    2
    17    10    11   ar
    18    12    13   ar
    19    18    19    1
    20     8     9    1
@<TRIPOS>MOLECULE
MolPort-002-004-927 CHEMBL1572894 CSSS00159746572 MCULE-2537895063 PubChem-2943507
 19 20 0 0 0
SMALL
GASTEIGER

@<TRIPOS>ATOM
      1 C           8.6221   39.6492    5.7133 C.ar    1  UNL1        0.1514
      2 C          10.6209   40.5793    5.2855 C.ar    1  UNL1        0.1845
      3 N           8.7288   39.1957    4.4332 N.ar    1  UNL1       -0.1917
      4 N           9.6480   40.4144    6.2030 N.ar    1  UNL1       -0.2076
      5 S          10.1872   39.7798    3.8923 S.2     1  UNL1        0.0492
      6 C          12.5382   41.3957    6.7622 C.2     1  UNL1        0.2570
      7 O          12.1487   40.7512    7.7724 O.2     1  UNL1       -0.2692
      8 N          11.8133   41.3345    5.5272 N.am    1  UNL1       -0.2590
      9 H          12.1684   41.8609    4.7748 H       1  UNL1        0.1571
     10 C          13.7490   42.2192    6.8513 C.ar    1  UNL1        0.0831
     11 C          14.8827   41.9140    7.5881 C.ar    1  UNL1        0.0116
     12 C          15.8808   42.8933    7.4791 C.ar    1  UNL1        0.0076
     13 C          15.5452   43.9704    6.6616 C.ar    1  UNL1        0.0356
     14 S          13.9928   43.6875    6.0782 S.2     1  UNL1       -0.0819
     15 C           7.4234   39.3335    6.5426 C.3     1  UNL1        0.0956
     16 C           6.4928   41.1991    7.8760 C.3     1  UNL1        0.0322
     17 C           6.4406   40.4926    6.5381 C.3     1  UNL1        0.1182
     18 O           6.7738   41.3949    5.5272 O.3     1  UNL1       -0.3840
     19 H           7.6679   41.7379    5.6818 H       1  UNL1        0.2104
@<TRIPOS>BOND
     1    17    16    1
     2    17    18    1
     3    17    15    1
     4    15     1    1
     5     1     4   ar
     6     2     5   ar
     7     2     8    1
     8     6    10    1
     9    10    14   ar
    10    11    12   ar
    11    13    14   ar
    12     3     5   ar
    13     8     6   am
    14     1     3   ar
    15     2     4   ar
    16     6     7    2
    17    10    11   ar
    18    12    13   ar
    19    18    19    1
    20     8     9    1
@<TRIPOS>MOLECULE
MolPort-002-004-927 CHEMBL1572894 CSSS00159746572 MCULE-2537895063 PubChem-2943507
 19 20 0 0 0
SMALL
GASTEIGER

@<TRIPOS>ATOM
      1 C           7.9458   42.4837    8.8560 C.ar    1  UNL1        0.1514
      2 C           9.8881   42.0049    9.8766 C.ar    1  UNL1        0.1845
      3 N           8.1395   43.7181    9.3986 N.ar    1  UNL1       -0.1917
      4 N           8.8915   41.5245    9.1074 N.ar    1  UNL1       -0.2076
      5 S           9.5734   43.6001   10.2298 S.2     1  UNL1        0.0492
      6 C          12.2731   41.1278    9.6204 C.2     1  UNL1        0.2570
      7 O          12.4863   41.7686    8.5567 O.2     1  UNL1       -0.2692
      8 N          11.0110   41.2202   10.2935 N.am    1  UNL1       -0.2590
      9 H          10.9064   40.6951   11.1197 H       1  UNL1        0.1571
     10 C          13.3301   40.2762   10.1771 C.ar    1  UNL1        0.0831
     11 C          13.2500   39.5550   11.3582 C.ar    1  UNL1        0.0116
     12 C          14.4199   38.8318   11.6327 C.ar    1  UNL1        0.0076
     13 C          15.4243   38.9755   10.6779 C.ar    1  UNL1        0.0356
     14 S          14.8373   40.0125    9.4905 S.2     1  UNL1       -0.0819
     15 C           6.7389   42.1882    8.0311 C.3     1  UNL1        0.0956
     16 C           4.6700   43.1755    8.9633 C.3     1  UNL1        0.0322
     17 C           5.5290   41.9300    8.9136 C.3     1  UNL1        0.1182
     18 O           4.7791   40.8735    8.3955 O.3     1  UNL1       -0.3840
     19 H           4.4773   41.0990    7.5016 H       1  UNL1        0.2104
@<TRIPOS>BOND
     1    17    16    1
     2    17    18    1
     3    17    15    1
     4    15     1    1
     5     1     4   ar
     6     2     5   ar
     7     2     8    1
     8     6    10    1
     9    10    14   ar
    10    11    12   ar
    11    13    14   ar
    12     3     5   ar
    13     8     6   am
    14     1     3   ar
    15     2     4   ar
    16     6     7    2
    17    10    11   ar
    18    12    13   ar
    19    18    19    1
    20     8     9    1
@<TRIPOS>MOLECULE
MolPort-002-004-927 CHEMBL1572894 CSSS00159746572 MCULE-2537895063 PubChem-2943507
 19 20 0 0 0
SMALL
GASTEIGER

@<TRIPOS>ATOM
      1 C          14.0776   42.5736    6.9489 C.ar    1  UNL1        0.1514
      2 C          12.5107   41.7412    8.3256 C.ar    1  UNL1        0.1845
      3 N          14.9092   41.7463    7.6414 N.ar    1  UNL1       -0.1917
      4 N          12.7554   42.5908    7.3087 N.ar    1  UNL1       -0.2076
      5 S          13.9336   40.9944    8.7566 S.2     1  UNL1        0.0492
      6 C          10.5052   42.5036    9.7113 C.2     1  UNL1        0.2570
      7 O          11.0091   43.6266    9.9806 O.2     1  UNL1       -0.2692
      8 N          11.2135   41.5552    8.9031 N.am    1  UNL1       -0.2590
      9 H          10.7665   40.6955    8.7287 H       1  UNL1        0.1571
     10 C           9.1766   42.1624   10.2315 C.ar    1  UNL1        0.0831
     11 C           8.8811   41.8397   11.5468 C.ar    1  UNL1        0.0116
     12 C           7.5211   41.5595   11.7444 C.ar    1  UNL1        0.0076
     13 C           6.7390   41.6582   10.5957 C.ar    1  UNL1        0.0356
     14 S           7.7613   42.0979    9.3340 S.2     1  UNL1       -0.0819
     15 C          14.5952   43.4382    5.8494 C.3     1  UNL1        0.0956
     16 C          16.9750   44.1085    5.9574 C.3     1  UNL1        0.0322
     17 C          15.5698   44.4731    6.3866 C.3     1  UNL1        0.1182
     18 O          15.2478   45.7349    5.8855 O.3     1  UNL1       -0.3840
     19 H          15.3013   45.7216    4.9171 H       1  UNL1        0.2104
@<TRIPOS>BOND
     1    17    16    1
     2    17    18    1
     3    17    15    1
     4    15     1    1
     5     1     4   ar
     6     2     5   ar
     7     2     8    1
     8     6    10    1
     9    10    14   ar
    10    11    12   ar
    11    13    14   ar
    12     3     5   ar
    13     8     6   am
    14     1     3   ar
    15     2     4   ar
    16     6     7    2
    17    10    11   ar
    18    12    13   ar
    19    18    19    1
    20     8     9    1
@<TRIPOS>MOLECULE
MolPort-002-004-927 CHEMBL1572894 CSSS00159746572 MCULE-2537895063 PubChem-2943507
 19 20 0 0 0
SMALL
GASTEIGER

@<TRIPOS>ATOM
      1 C          11.0036   38.8690    8.2611 C.ar    1  UNL1        0.1514
      2 C          13.0371   38.3455    9.0576 C.ar    1  UNL1        0.1845
      3 N          10.6164   37.7554    8.9435 N.ar    1  UNL1       -0.1917
      4 N          12.3296   39.2118    8.3061 N.ar    1  UNL1       -0.2076
      5 S          12.0079   37.1767    9.6432 S.2     1  UNL1        0.0492
      6 C          15.2573   37.5677   10.0520 C.2     1  UNL1        0.2570
      7 O          14.7498   36.5637   10.6197 O.2     1  UNL1       -0.2692
      8 N          14.4471   38.4621    9.2787 N.am    1  UNL1       -0.2590
      9 H          14.9026   39.2281    8.8604 H       1  UNL1        0.1571
     10 C          16.6956   37.8243   10.1843 C.ar    1  UNL1        0.0831
     11 C          17.2676   38.9692   10.7171 C.ar    1  UNL1        0.0116
     12 C          18.6695   38.9282   10.7120 C.ar    1  UNL1        0.0076
     13 C          19.2105   37.7599   10.1795 C.ar    1  UNL1        0.0356
     14 S          17.9227   36.7814    9.7164 S.2     1  UNL1       -0.0819
     15 C          10.0185   39.6741    7.4829 C.3     1  UNL1        0.0956
     16 C           7.7479   39.6957    6.4990 C.3     1  UNL1        0.0322
     17 C           8.8617   38.8083    7.0124 C.3     1  UNL1        0.1182
     18 O           9.2869   37.9626    5.9871 O.3     1  UNL1       -0.3840
     19 H           9.6086   38.4940    5.2422 H       1  UNL1        0.2104
@<TRIPOS>BOND
     1    17    16    1
     2    17    18    1
     3    17    15    1
     4    15     1    1
     5     1     4   ar
     6     2     5   ar
     7     2     8    1
     8     6    10    1
     9    10    14   ar
    10    11    12   ar
    11    13    14   ar
    12     3     5   ar
    13     8     6   am
    14     1     3   ar
    15     2     4   ar
    16     6     7    2
    17    10    11   ar
    18    12    13   ar
    19    18    19    1
    20     8     9    1
@<TRIPOS>MOLECULE
MolPort-002-004-927 CHEMBL1572894 CSSS00159746572 MCULE-2537895063 PubChem-2943507
 19 20 0 0 0
SMALL
GASTEIGER

@<TRIPOS>ATOM
      1 C          14.0240   42.7756    6.7323 C.ar    1  UNL1        0.1514
      2 C          12.3456   42.0310    8.0254 C.ar    1  UNL1        0.1845
      3 N          14.7504   41.8322    7.3942 N.ar    1  UNL1       -0.1917
      4 N          12.7008   42.9059    7.0641 N.ar    1  UNL1       -0.2076
      5 S          13.6753   41.1225    8.4435 S.2     1  UNL1        0.0492
      6 C           9.8231   41.6872    7.8203 C.2     1  UNL1        0.2570
      7 O           9.8619   41.5097    6.5735 O.2     1  UNL1       -0.2692
      8 N          11.0213   41.9451    8.5634 N.am    1  UNL1       -0.2590
      9 H          10.9248   42.0754    9.5345 H       1  UNL1        0.1571
     10 C           8.5352   41.6290    8.5203 C.ar    1  UNL1        0.0831
     11 C           7.3417   41.1735    7.9822 C.ar    1  UNL1        0.0116
     12 C           6.2766   41.2376    8.8924 C.ar    1  UNL1        0.0076
     13 C           6.6186   41.7399   10.1461 C.ar    1  UNL1        0.0356
     14 S           8.2609   42.1024   10.1057 S.2     1  UNL1       -0.0819
     15 C          14.6544   43.6425    5.6953 C.3     1  UNL1        0.0956
     16 C          17.0832   44.0621    5.9161 C.3     1  UNL1        0.0322
     17 C          15.7059   44.5493    6.3127 C.3     1  UNL1        0.1182
     18 O          15.5315   45.8574    5.8593 O.3     1  UNL1       -0.3840
     19 H          15.6212   45.8795    4.8937 H       1  UNL1        0.2104
@<TRIPOS>BOND
     1    17    16    1
     2    17    18    1
     3    17    15    1
     4    15     1    1
     5     1     4   ar
     6     2     5   ar
     7     2     8    1
     8     6    10    1
     9    10    14   ar
    10    11    12   ar
    11    13    14   ar
    12     3     5   ar
    13     8     6   am
    14     1     3   ar
    15     2     4   ar
    16     6     7    2
    17    10    11   ar
    18    12    13   ar
    19    18    19    1
    20     8     9    1
@<TRIPOS>MOLECULE
MolPort-002-004-927 CHEMBL1572894 CSSS00159746572 MCULE-2537895063 PubChem-2943507
 19 20 0 0 0
SMALL
GASTEIGER

@<TRIPOS>ATOM
      1 C          11.5526   40.7498   10.4843 C.ar    1  UNL1        0.1514
      2 C           9.4418   41.5076   10.3664 C.ar    1  UNL1        0.1845
      3 N          11.7815   41.6851    9.5207 N.ar    1  UNL1       -0.1917
      4 N          10.2739   40.6312   10.9625 N.ar    1  UNL1       -0.2076
      5 S          10.3056   42.4029    9.2616 S.2     1  UNL1        0.0492
      6 C           6.9647   41.4474    9.7473 C.2     1  UNL1        0.2570
      7 O           7.1861   41.1992    8.5320 O.2     1  UNL1       -0.2692
      8 N           8.0466   41.6049   10.6740 N.am    1  UNL1       -0.2590
      9 H           7.8084   41.7980   11.6095 H       1  UNL1        0.1571
     10 C           5.5818   41.5768   10.2196 C.ar    1  UNL1        0.0831
     11 C           5.0491   40.9611   11.3415 C.ar    1  UNL1        0.0116
     12 C           3.6964   41.2736   11.5411 C.ar    1  UNL1        0.0076
     13 C           3.1556   42.1316   10.5860 C.ar    1  UNL1        0.0356
     14 S           4.3813   42.4948    9.4924 S.2     1  UNL1       -0.0819
     15 C          12.6543   39.8790   10.9865 C.3     1  UNL1        0.0956
     16 C          15.0513   39.2980   10.7842 C.3     1  UNL1        0.0322
     17 C          13.9009   40.0344   10.1316 C.3     1  UNL1        0.1182
     18 O          13.6755   39.5036    8.8609 O.3     1  UNL1       -0.3840
     19 H          13.4594   38.5611    8.9380 H       1  UNL1        0.2104
@<TRIPOS>BOND
     1    17    16    1
     2    17    18    1
     3    17    15    1
     4    15     1    1
     5     1     4   ar
     6     2     5   ar
     7     2     8    1
     8     6    10    1
     9    10    14   ar
    10    11    12   ar
    11    13    14   ar
    12     3     5   ar
    13     8     6   am
    14     1     3   ar
    15     2     4   ar
    16     6     7    2
    17    10    11   ar
    18    12    13   ar
    19    18    19    1
    20     8     9    1
