@<TRIPOS>MOLECULE
Molport-047-895-750 PubChem-165931047
 25 26 0 0 0
SMALL
GASTEIGER

@<TRIPOS>ATOM
      1 C           9.9393   41.1942    8.0209 C.ar    1  UNL1        0.1198
      2 C          10.5783   42.2577    8.6488 C.ar    1  UNL1        0.1318
      3 C           8.4935   42.6258    8.8755 C.ar    1  UNL1        0.2134
      4 C           8.5851   41.4430    8.1740 C.ar    1  UNL1        0.1266
      5 C          12.0488   42.4662    8.7670 C.3     1  UNL1        0.0728
      6 O           9.6917   43.0910    9.1464 O.2     1  UNL1       -0.4430
      7 C           6.3801   43.9120    8.3463 C.2     1  UNL1        0.4079
      8 O           6.6444   43.9570    7.1132 O.2     1  UNL1       -0.2260
      9 N           7.2697   43.2616    9.2577 N.am    1  UNL1       -0.2204
     10 H           7.0239   43.2504   10.2110 H       1  UNL1        0.1611
     11 O           5.2147   44.4969    8.8405 O.3     1  UNL1       -0.4294
     12 C           3.9430   43.8838    8.6844 C.3     1  UNL1        0.2367
     13 C           3.8610   42.6744    9.5462 C.ar    1  UNL1        0.0213
     14 C           4.5411   42.6383   10.7682 C.ar    1  UNL1       -0.0007
     15 C           4.4840   41.4920   11.5671 C.ar    1  UNL1       -0.0002
     16 C           3.7519   40.3791   11.1418 C.ar    1  UNL1       -0.0000
     17 C           3.0786   40.4112    9.9165 C.ar    1  UNL1       -0.0002
     18 C           3.1355   41.5575    9.1174 C.ar    1  UNL1       -0.0007
     19 C          10.5660   40.0441    7.3382 C.2     1  UNL1        0.3447
     20 O          10.2871   39.7974    6.1332 O.2     1  UNL1       -0.2448
     21 O          11.4633   39.2268    8.0330 O.3     1  UNL1       -0.4454
     22 C          10.9196   37.3718    9.4803 C.3     1  UNL1        0.0513
     23 C          11.2653   38.8469    9.3897 C.3     1  UNL1        0.2089
     24 C           7.4827   40.6426    7.7062 C.1     1  UNL1        0.1052
     25 N           6.5971   39.9993    7.3307 N.1     1  UNL1       -0.1907
@<TRIPOS>BOND
     1    22    23    1
     2    23    21    1
     3    19    21    1
     4    19     1    1
     5     2     6   ar
     6     3     6   ar
     7     3     9    1
     8     4    24    1
     9     4     1   ar
    10     7    11    1
    11    12    11    1
    12    12    13    1
    13    14    15   ar
    14    16    17   ar
    15    18    13   ar
    16     5     2    1
    17     9     7   am
    18    19    20    2
    19     1     2   ar
    20     3     4   ar
    21     7     8    2
    22    13    14   ar
    23    15    16   ar
    24    17    18   ar
    25    24    25    3
    26     9    10    1
@<TRIPOS>MOLECULE
Molport-047-895-750 PubChem-165931047
 25 26 0 0 0
SMALL
GASTEIGER

@<TRIPOS>ATOM
      1 C          15.8144   42.3288    7.7928 C.ar    1  UNL1        0.1198
      2 C          15.6739   43.3008    6.8083 C.ar    1  UNL1        0.1318
      3 C          13.8329   42.2315    6.8262 C.ar    1  UNL1        0.2134
      4 C          14.6126   41.6396    7.7963 C.ar    1  UNL1        0.1266
      5 C          16.6917   44.3118    6.4062 C.3     1  UNL1        0.0728
      6 O          14.4856   43.2166    6.2527 O.2     1  UNL1       -0.4430
      7 C          11.3713   41.9781    7.3530 C.2     1  UNL1        0.4079
      8 O          11.5035   42.4831    8.5019 O.2     1  UNL1       -0.2260
      9 N          12.5005   41.8339    6.4874 N.am    1  UNL1       -0.2204
     10 H          12.3514   41.4347    5.5999 H       1  UNL1        0.1611
     11 O          10.1201   41.5519    6.9087 O.3     1  UNL1       -0.4294
     12 C           9.7283   40.1879    6.9656 C.3     1  UNL1        0.2367
     13 C           9.8506   39.5749    5.6160 C.ar    1  UNL1        0.0213
     14 C          11.0987   39.1440    5.1536 C.ar    1  UNL1       -0.0007
     15 C          11.2180   38.5903    3.8751 C.ar    1  UNL1       -0.0002
     16 C          10.0907   38.4725    3.0560 C.ar    1  UNL1       -0.0000
     17 C           8.8442   38.9108    3.5144 C.ar    1  UNL1       -0.0002
     18 C           8.7247   39.4646    4.7929 C.ar    1  UNL1       -0.0007
     19 C          16.9895   42.0823    8.6528 C.2     1  UNL1        0.3447
     20 O          17.5889   43.0507    9.1947 O.2     1  UNL1       -0.2448
     21 O          17.4391   40.7741    8.8587 O.3     1  UNL1       -0.4454
     22 C          17.3156   38.6682   10.0341 C.3     1  UNL1        0.0513
     23 C          17.4891   40.1719   10.1467 C.3     1  UNL1        0.2089
     24 C          14.2339   40.5310    8.6343 C.1     1  UNL1        0.1052
     25 N          13.9301   39.6404    9.3078 N.1     1  UNL1       -0.1907
@<TRIPOS>BOND
     1    22    23    1
     2    23    21    1
     3    19    21    1
     4    19     1    1
     5     2     6   ar
     6     3     6   ar
     7     3     9    1
     8     4    24    1
     9     4     1   ar
    10     7    11    1
    11    12    11    1
    12    12    13    1
    13    14    15   ar
    14    16    17   ar
    15    18    13   ar
    16     5     2    1
    17     9     7   am
    18    19    20    2
    19     1     2   ar
    20     3     4   ar
    21     7     8    2
    22    13    14   ar
    23    15    16   ar
    24    17    18   ar
    25    24    25    3
    26     9    10    1
@<TRIPOS>MOLECULE
Molport-047-895-750 PubChem-165931047
 25 26 0 0 0
SMALL
GASTEIGER

@<TRIPOS>ATOM
      1 C           4.7982   42.1818   10.1062 C.ar    1  UNL1        0.1198
      2 C           4.7501   41.4789   11.3051 C.ar    1  UNL1        0.1318
      3 C           6.7900   41.4374   10.6967 C.ar    1  UNL1        0.2134
      4 C           6.1281   42.1489    9.7194 C.ar    1  UNL1        0.1266
      5 C           3.5412   41.2235   12.1375 C.3     1  UNL1        0.0728
      6 O           5.9497   41.0495   11.6287 O.2     1  UNL1       -0.4430
      7 C           9.2076   42.1254   10.9853 C.2     1  UNL1        0.4079
      8 O           8.8985   43.3185   11.2565 O.2     1  UNL1       -0.2260
      9 N           8.1936   41.1579   10.7010 N.am    1  UNL1       -0.2204
     10 H           8.4800   40.2389   10.4945 H       1  UNL1        0.1611
     11 O          10.5448   41.7311   10.9585 O.3     1  UNL1       -0.4294
     12 C          10.9242   40.3788   10.7470 C.3     1  UNL1        0.2367
     13 C          12.3491   40.3185   10.3250 C.ar    1  UNL1        0.0213
     14 C          12.7489   40.9125    9.1231 C.ar    1  UNL1       -0.0007
     15 C          14.0838   40.8346    8.7143 C.ar    1  UNL1       -0.0002
     16 C          15.0187   40.1578    9.5039 C.ar    1  UNL1       -0.0000
     17 C          14.6182   39.5565   10.7014 C.ar    1  UNL1       -0.0002
     18 C          13.2832   39.6343   11.1105 C.ar    1  UNL1       -0.0007
     19 C           3.6756   42.8272    9.3959 C.2     1  UNL1        0.3447
     20 O           2.7061   42.1328    8.9853 O.2     1  UNL1       -0.2448
     21 O           3.6941   44.2080    9.1744 O.3     1  UNL1       -0.4454
     22 C           4.5801   45.3692    7.2514 C.3     1  UNL1        0.0513
     23 C           3.3482   44.7909    7.9235 C.3     1  UNL1        0.2089
     24 C           6.7194   42.7333    8.5432 C.1     1  UNL1        0.1052
     25 N           7.1942   43.2025    7.5979 N.1     1  UNL1       -0.1907
@<TRIPOS>BOND
     1    22    23    1
     2    23    21    1
     3    19    21    1
     4    19     1    1
     5     2     6   ar
     6     3     6   ar
     7     3     9    1
     8     4    24    1
     9     4     1   ar
    10     7    11    1
    11    12    11    1
    12    12    13    1
    13    14    15   ar
    14    16    17   ar
    15    18    13   ar
    16     5     2    1
    17     9     7   am
    18    19    20    2
    19     1     2   ar
    20     3     4   ar
    21     7     8    2
    22    13    14   ar
    23    15    16   ar
    24    17    18   ar
    25    24    25    3
    26     9    10    1
@<TRIPOS>MOLECULE
Molport-047-895-750 PubChem-165931047
 25 26 0 0 0
SMALL
GASTEIGER

@<TRIPOS>ATOM
      1 C          13.8808   40.4991    9.4723 C.ar    1  UNL1        0.1198
      2 C          13.2604   40.0244   10.6227 C.ar    1  UNL1        0.1318
      3 C          11.7397   41.0314    9.5242 C.ar    1  UNL1        0.2134
      4 C          12.8840   41.1518    8.7654 C.ar    1  UNL1        0.1266
      5 C          13.9003   39.2477   11.7214 C.3     1  UNL1        0.0728
      6 O          11.9887   40.3573   10.6237 O.2     1  UNL1       -0.4430
      7 C          10.0051   42.8732    9.5198 C.2     1  UNL1        0.4079
      8 O          10.7427   43.6520   10.1845 O.2     1  UNL1       -0.2260
      9 N          10.4592   41.5631    9.1697 N.am    1  UNL1       -0.2204
     10 H           9.8508   40.9891    8.6504 H       1  UNL1        0.1611
     11 O           8.7335   43.2783    9.1156 O.3     1  UNL1       -0.4294
     12 C           7.7305   42.3434    8.7451 C.3     1  UNL1        0.2367
     13 C           6.4157   43.0317    8.6472 C.ar    1  UNL1        0.0213
     14 C           5.3256   42.5676    9.3911 C.ar    1  UNL1       -0.0007
     15 C           4.0831   43.1996    9.2803 C.ar    1  UNL1       -0.0002
     16 C           3.9284   44.2922    8.4213 C.ar    1  UNL1       -0.0000
     17 C           5.0155   44.7515    7.6710 C.ar    1  UNL1       -0.0002
     18 C           6.2582   44.1196    7.7816 C.ar    1  UNL1       -0.0007
     19 C          15.2968   40.3417    9.0833 C.2     1  UNL1        0.3447
     20 O          15.8794   39.2364    9.2559 O.2     1  UNL1       -0.2448
     21 O          15.9908   41.4225    8.5300 O.3     1  UNL1       -0.4454
     22 C          17.6170   43.2076    8.5439 C.3     1  UNL1        0.0513
     23 C          17.3134   41.7696    8.9228 C.3     1  UNL1        0.2089
     24 C          12.9975   41.8228    7.4960 C.1     1  UNL1        0.1052
     25 N          13.0882   42.3621    6.4762 N.1     1  UNL1       -0.1907
@<TRIPOS>BOND
     1    22    23    1
     2    23    21    1
     3    19    21    1
     4    19     1    1
     5     2     6   ar
     6     3     6   ar
     7     3     9    1
     8     4    24    1
     9     4     1   ar
    10     7    11    1
    11    12    11    1
    12    12    13    1
    13    14    15   ar
    14    16    17   ar
    15    18    13   ar
    16     5     2    1
    17     9     7   am
    18    19    20    2
    19     1     2   ar
    20     3     4   ar
    21     7     8    2
    22    13    14   ar
    23    15    16   ar
    24    17    18   ar
    25    24    25    3
    26     9    10    1
@<TRIPOS>MOLECULE
Molport-047-895-750 PubChem-165931047
 25 26 0 0 0
SMALL
GASTEIGER

@<TRIPOS>ATOM
      1 C          14.2045   41.4886    8.3317 C.ar    1  UNL1        0.1198
      2 C          13.7198   42.2844    7.2995 C.ar    1  UNL1        0.1318
      3 C          12.0110   41.7095    8.4320 C.ar    1  UNL1        0.2134
      4 C          13.0861   41.1203    9.0618 C.ar    1  UNL1        0.1266
      5 C          14.5236   42.9368    6.2280 C.3     1  UNL1        0.0728
      6 O          12.4130   42.3962    7.3870 O.2     1  UNL1       -0.4430
      7 C           9.9995   42.5026    9.7458 C.2     1  UNL1        0.4079
      8 O          10.6249   43.4890   10.2236 O.2     1  UNL1       -0.2260
      9 N          10.6480   41.5934    8.8526 N.am    1  UNL1       -0.2204
     10 H          10.1221   40.8377    8.5039 H       1  UNL1        0.1611
     11 O           8.6641   42.2832   10.0820 O.3     1  UNL1       -0.4294
     12 C           7.7030   41.8835    9.1156 C.3     1  UNL1        0.2367
     13 C           6.3356   42.0117    9.6864 C.ar    1  UNL1        0.0213
     14 C           5.3623   42.7562    9.0114 C.ar    1  UNL1       -0.0007
     15 C           4.0839   42.8972    9.5601 C.ar    1  UNL1       -0.0002
     16 C           3.7796   42.2988   10.7869 C.ar    1  UNL1       -0.0000
     17 C           4.7545   41.5614   11.4663 C.ar    1  UNL1       -0.0002
     18 C           6.0330   41.4203   10.9178 C.ar    1  UNL1       -0.0007
     19 C          15.6087   41.1154    8.5970 C.2     1  UNL1        0.3447
     20 O          15.8699   40.1102    9.3126 O.2     1  UNL1       -0.2448
     21 O          16.6464   41.8830    8.0585 O.3     1  UNL1       -0.4454
     22 C          17.8955   43.9469    7.9534 C.3     1  UNL1        0.0513
     23 C          17.3949   42.8141    8.8308 C.3     1  UNL1        0.2089
     24 C          13.0349   40.2944   10.2407 C.1     1  UNL1        0.1052
     25 N          12.9933   39.6306   11.1876 N.1     1  UNL1       -0.1907
@<TRIPOS>BOND
     1    22    23    1
     2    23    21    1
     3    19    21    1
     4    19     1    1
     5     2     6   ar
     6     3     6   ar
     7     3     9    1
     8     4    24    1
     9     4     1   ar
    10     7    11    1
    11    12    11    1
    12    12    13    1
    13    14    15   ar
    14    16    17   ar
    15    18    13   ar
    16     5     2    1
    17     9     7   am
    18    19    20    2
    19     1     2   ar
    20     3     4   ar
    21     7     8    2
    22    13    14   ar
    23    15    16   ar
    24    17    18   ar
    25    24    25    3
    26     9    10    1
@<TRIPOS>MOLECULE
Molport-047-895-750 PubChem-165931047
 25 26 0 0 0
SMALL
GASTEIGER

@<TRIPOS>ATOM
      1 C          14.2293   41.3850    7.8514 C.ar    1  UNL1        0.1198
      2 C          14.4078   42.5039    7.0453 C.ar    1  UNL1        0.1318
      3 C          12.5238   41.6865    6.4838 C.ar    1  UNL1        0.2134
      4 C          13.0021   40.8612    7.4786 C.ar    1  UNL1        0.1266
      5 C          15.5777   43.4265    7.0521 C.3     1  UNL1        0.0728
      6 O          13.3771   42.6557    6.2437 O.2     1  UNL1       -0.4430
      7 C           9.9957   41.7455    6.4015 C.2     1  UNL1        0.4079
      8 O           9.9054   42.1230    7.6022 O.2     1  UNL1       -0.2260
      9 N          11.2752   41.5166    5.8052 N.am    1  UNL1       -0.2204
     10 H          11.2987   41.2229    4.8658 H       1  UNL1        0.1611
     11 O           8.8476   41.5451    5.6360 O.3     1  UNL1       -0.4294
     12 C           7.6928   40.9112    6.1671 C.3     1  UNL1        0.2367
     13 C           6.8741   41.9044    6.9122 C.ar    1  UNL1        0.0213
     14 C           6.7133   43.1990    6.4068 C.ar    1  UNL1       -0.0007
     15 C           5.9640   44.1402    7.1195 C.ar    1  UNL1       -0.0002
     16 C           5.3801   43.7895    8.3408 C.ar    1  UNL1       -0.0000
     17 C           5.5474   42.4982    8.8508 C.ar    1  UNL1       -0.0002
     18 C           6.2967   41.5567    8.1383 C.ar    1  UNL1       -0.0007
     19 C          15.1472   40.8648    8.8849 C.2     1  UNL1        0.3447
     20 O          16.3949   40.9572    8.7248 O.2     1  UNL1       -0.2448
     21 O          14.6296   40.2644   10.0371 O.3     1  UNL1       -0.4454
     22 C          14.4778   38.7388   11.9028 C.3     1  UNL1        0.0513
     23 C          15.1843   39.0836   10.6044 C.3     1  UNL1        0.2089
     24 C          12.3421   39.6963    8.0096 C.1     1  UNL1        0.1052
     25 N          11.8117   38.7603    8.4358 N.1     1  UNL1       -0.1907
@<TRIPOS>BOND
     1    22    23    1
     2    23    21    1
     3    19    21    1
     4    19     1    1
     5     2     6   ar
     6     3     6   ar
     7     3     9    1
     8     4    24    1
     9     4     1   ar
    10     7    11    1
    11    12    11    1
    12    12    13    1
    13    14    15   ar
    14    16    17   ar
    15    18    13   ar
    16     5     2    1
    17     9     7   am
    18    19    20    2
    19     1     2   ar
    20     3     4   ar
    21     7     8    2
    22    13    14   ar
    23    15    16   ar
    24    17    18   ar
    25    24    25    3
    26     9    10    1
@<TRIPOS>MOLECULE
Molport-047-895-750 PubChem-165931047
 25 26 0 0 0
SMALL
GASTEIGER

@<TRIPOS>ATOM
      1 C          14.3573   40.9331    8.8922 C.ar    1  UNL1        0.1198
      2 C          13.5588   41.5854    7.9592 C.ar    1  UNL1        0.1318
      3 C          12.2162   40.7884    9.4068 C.ar    1  UNL1        0.2134
      4 C          13.4752   40.4189    9.8286 C.ar    1  UNL1        0.1266
      5 C          14.0239   42.3102    6.7435 C.3     1  UNL1        0.0728
      6 O          12.2917   41.4810    8.2933 O.2     1  UNL1       -0.4430
      7 C          10.1710   41.4209   10.7552 C.2     1  UNL1        0.4079
      8 O          10.4939   42.6404   10.7857 O.2     1  UNL1       -0.2260
      9 N          10.9962   40.4664   10.0822 N.am    1  UNL1       -0.2204
     10 H          10.7060   39.5257   10.0835 H       1  UNL1        0.1611
     11 O           9.0025   40.9841   11.3784 O.3     1  UNL1       -0.4294
     12 C           7.9505   41.8783   11.7117 C.3     1  UNL1        0.2367
     13 C           6.7752   41.6165   10.8387 C.ar    1  UNL1        0.0213
     14 C           5.5373   41.2991   11.4080 C.ar    1  UNL1       -0.0007
     15 C           4.4383   41.0287   10.5869 C.ar    1  UNL1       -0.0002
     16 C           4.5776   41.0698    9.1961 C.ar    1  UNL1       -0.0000
     17 C           5.8168   41.3787    8.6261 C.ar    1  UNL1       -0.0002
     18 C           6.9160   41.6491    9.4470 C.ar    1  UNL1       -0.0007
     19 C          15.8294   40.8137    8.8899 C.2     1  UNL1        0.3447
     20 O          16.3874   39.8774    9.5245 O.2     1  UNL1       -0.2448
     21 O          16.6021   41.7446    8.1882 O.3     1  UNL1       -0.4454
     22 C          17.5212   43.9587    7.8976 C.3     1  UNL1        0.0513
     23 C          17.3345   42.7790    8.8342 C.3     1  UNL1        0.2089
     24 C          13.7880   39.6544   11.0086 C.1     1  UNL1        0.1052
     25 N          14.0389   39.0399   11.9564 N.1     1  UNL1       -0.1907
@<TRIPOS>BOND
     1    22    23    1
     2    23    21    1
     3    19    21    1
     4    19     1    1
     5     2     6   ar
     6     3     6   ar
     7     3     9    1
     8     4    24    1
     9     4     1   ar
    10     7    11    1
    11    12    11    1
    12    12    13    1
    13    14    15   ar
    14    16    17   ar
    15    18    13   ar
    16     5     2    1
    17     9     7   am
    18    19    20    2
    19     1     2   ar
    20     3     4   ar
    21     7     8    2
    22    13    14   ar
    23    15    16   ar
    24    17    18   ar
    25    24    25    3
    26     9    10    1
@<TRIPOS>MOLECULE
Molport-047-895-750 PubChem-165931047
 25 26 0 0 0
SMALL
GASTEIGER

@<TRIPOS>ATOM
      1 C          14.9376   42.9510    6.8555 C.ar    1  UNL1        0.1198
      2 C          13.8492   43.3226    6.0738 C.ar    1  UNL1        0.1318
      3 C          13.1932   41.6470    7.2120 C.ar    1  UNL1        0.2134
      4 C          14.5008   41.8615    7.5913 C.ar    1  UNL1        0.1266
      5 C          13.7984   44.4480    5.0989 C.3     1  UNL1        0.0728
      6 O          12.8285   42.5282    6.3088 O.2     1  UNL1       -0.4430
      7 C          11.4493   40.7782    8.8260 C.2     1  UNL1        0.4079
      8 O          11.3570   41.8887    9.4182 O.2     1  UNL1       -0.2260
      9 N          12.3479   40.6129    7.7258 N.am    1  UNL1       -0.2204
     10 H          12.3875   39.7293    7.2934 H       1  UNL1        0.1611
     11 O          10.6755   39.6930    9.2358 O.3     1  UNL1       -0.4294
     12 C          11.0166   38.3570    8.8951 C.3     1  UNL1        0.2367
     13 C          12.0741   37.8599    9.8153 C.ar    1  UNL1        0.0213
     14 C          12.8076   38.7634   10.5917 C.ar    1  UNL1       -0.0007
     15 C          13.8185   38.2984   11.4385 C.ar    1  UNL1       -0.0002
     16 C          14.1006   36.9303   11.5051 C.ar    1  UNL1       -0.0000
     17 C          13.3735   36.0273   10.7230 C.ar    1  UNL1       -0.0002
     18 C          12.3625   36.4922    9.8761 C.ar    1  UNL1       -0.0007
     19 C          16.2728   43.5809    6.8966 C.2     1  UNL1        0.3447
     20 O          17.0347   43.5105    5.8940 O.2     1  UNL1       -0.2448
     21 O          16.6919   44.2491    8.0516 O.3     1  UNL1       -0.4454
     22 C          18.3795   42.5389    8.2928 C.3     1  UNL1        0.0513
     23 C          17.6694   43.7156    8.9368 C.3     1  UNL1        0.2089
     24 C          15.2428   41.0967    8.5603 C.1     1  UNL1        0.1052
     25 N          15.8390   40.4818    9.3386 N.1     1  UNL1       -0.1907
@<TRIPOS>BOND
     1    22    23    1
     2    23    21    1
     3    19    21    1
     4    19     1    1
     5     2     6   ar
     6     3     6   ar
     7     3     9    1
     8     4    24    1
     9     4     1   ar
    10     7    11    1
    11    12    11    1
    12    12    13    1
    13    14    15   ar
    14    16    17   ar
    15    18    13   ar
    16     5     2    1
    17     9     7   am
    18    19    20    2
    19     1     2   ar
    20     3     4   ar
    21     7     8    2
    22    13    14   ar
    23    15    16   ar
    24    17    18   ar
    25    24    25    3
    26     9    10    1
@<TRIPOS>MOLECULE
Molport-047-895-750 PubChem-165931047
 25 26 0 0 0
SMALL
GASTEIGER

@<TRIPOS>ATOM
      1 C          13.7637   41.5929    7.9267 C.ar    1  UNL1        0.1198
      2 C          13.3666   42.3957    6.8630 C.ar    1  UNL1        0.1318
      3 C          11.5691   41.6153    7.6956 C.ar    1  UNL1        0.2134
      4 C          12.5883   41.0906    8.4609 C.ar    1  UNL1        0.1266
      5 C          14.2569   43.1709    5.9541 C.3     1  UNL1        0.0728
      6 O          12.0568   42.3880    6.7520 O.2     1  UNL1       -0.4430
      7 C           9.2013   41.3354    6.8494 C.2     1  UNL1        0.4079
      8 O           9.5396   41.5493    5.6526 O.2     1  UNL1       -0.2260
      9 N          10.1756   41.3584    7.8960 N.am    1  UNL1       -0.2204
     10 H           9.8673   41.1862    8.8149 H       1  UNL1        0.1611
     11 O           7.8700   41.0730    7.1707 O.3     1  UNL1       -0.4294
     12 C           6.9780   42.1028    7.5723 C.3     1  UNL1        0.2367
     13 C           6.3464   41.7407    8.8693 C.ar    1  UNL1        0.0213
     14 C           7.0870   41.8167   10.0538 C.ar    1  UNL1       -0.0007
     15 C           6.5008   41.4528   11.2700 C.ar    1  UNL1       -0.0002
     16 C           5.1757   41.0071   11.3019 C.ar    1  UNL1       -0.0000
     17 C           4.4373   40.9228   10.1172 C.ar    1  UNL1       -0.0002
     18 C           5.0234   41.2867    8.9008 C.ar    1  UNL1       -0.0007
     19 C          15.1410   41.3310    8.3912 C.2     1  UNL1        0.3447
     20 O          15.3570   40.4332    9.2504 O.2     1  UNL1       -0.2448
     21 O          16.2027   42.0850    7.8811 O.3     1  UNL1       -0.4454
     22 C          17.7972   43.8932    8.0210 C.3     1  UNL1        0.0513
     23 C          17.1874   42.6876    8.7126 C.3     1  UNL1        0.2089
     24 C          12.4388   40.2032    9.5855 C.1     1  UNL1        0.1052
     25 N          12.3188   39.4899   10.4887 N.1     1  UNL1       -0.1907
@<TRIPOS>BOND
     1    22    23    1
     2    23    21    1
     3    19    21    1
     4    19     1    1
     5     2     6   ar
     6     3     6   ar
     7     3     9    1
     8     4    24    1
     9     4     1   ar
    10     7    11    1
    11    12    11    1
    12    12    13    1
    13    14    15   ar
    14    16    17   ar
    15    18    13   ar
    16     5     2    1
    17     9     7   am
    18    19    20    2
    19     1     2   ar
    20     3     4   ar
    21     7     8    2
    22    13    14   ar
    23    15    16   ar
    24    17    18   ar
    25    24    25    3
    26     9    10    1
@<TRIPOS>MOLECULE
Molport-047-895-750 PubChem-165931047
 25 26 0 0 0
SMALL
GASTEIGER

@<TRIPOS>ATOM
      1 C          14.2042   42.2636    7.4386 C.ar    1  UNL1        0.1198
      2 C          13.6729   42.8426    6.2913 C.ar    1  UNL1        0.1318
      3 C          12.0405   41.8711    7.2528 C.ar    1  UNL1        0.2134
      4 C          13.1352   41.6349    8.0561 C.ar    1  UNL1        0.1266
      5 C          14.4135   43.6401    5.2738 C.3     1  UNL1        0.0728
      6 O          12.3852   42.5911    6.2097 O.2     1  UNL1       -0.4430
      7 C           9.6551   41.4023    6.5519 C.2     1  UNL1        0.4079
      8 O           9.8499   41.8350    5.3826 O.2     1  UNL1       -0.2260
      9 N          10.7139   41.4013    7.5131 N.am    1  UNL1       -0.2204
     10 H          10.5173   41.0547    8.4133 H       1  UNL1        0.1611
     11 O           8.4022   40.9175    6.9258 O.3     1  UNL1       -0.4294
     12 C           7.8944   41.0862    8.2415 C.3     1  UNL1        0.2367
     13 C           6.8508   42.1459    8.2435 C.ar    1  UNL1        0.0213
     14 C           5.8051   42.0966    9.1717 C.ar    1  UNL1       -0.0007
     15 C           4.8104   43.0793    9.1577 C.ar    1  UNL1       -0.0002
     16 C           4.8573   44.1084    8.2121 C.ar    1  UNL1       -0.0000
     17 C           5.8976   44.1537    7.2786 C.ar    1  UNL1       -0.0002
     18 C           6.8926   43.1711    7.2923 C.ar    1  UNL1       -0.0007
     19 C          15.6055   42.3085    7.9030 C.2     1  UNL1        0.3447
     20 O          16.1782   41.2510    8.2831 O.2     1  UNL1       -0.2448
     21 O          16.2922   43.5266    7.9263 O.3     1  UNL1       -0.4454
     22 C          17.8659   43.7459    6.1079 C.3     1  UNL1        0.0513
     23 C          17.6749   43.6361    7.6095 C.3     1  UNL1        0.2089
     24 C          13.1433   40.8852    9.2859 C.1     1  UNL1        0.1052
     25 N          13.1502   40.2831   10.2741 N.1     1  UNL1       -0.1907
@<TRIPOS>BOND
     1    22    23    1
     2    23    21    1
     3    19    21    1
     4    19     1    1
     5     2     6   ar
     6     3     6   ar
     7     3     9    1
     8     4    24    1
     9     4     1   ar
    10     7    11    1
    11    12    11    1
    12    12    13    1
    13    14    15   ar
    14    16    17   ar
    15    18    13   ar
    16     5     2    1
    17     9     7   am
    18    19    20    2
    19     1     2   ar
    20     3     4   ar
    21     7     8    2
    22    13    14   ar
    23    15    16   ar
    24    17    18   ar
    25    24    25    3
    26     9    10    1
