@<TRIPOS>MOLECULE
MolPort-007-723-430 15674591 ChemDiv-E157-5444 MCULE-7155321640 PubChem-22517996 ZINC000015674591 ZINC15674591
 27 29 0 0 0
SMALL
GASTEIGER

@<TRIPOS>ATOM
      1 C           9.1420   41.2487    6.4376 C.ar    1  UNL1        0.2593
      2 C          11.5080   41.4575    6.6765 C.ar    1  UNL1        0.1896
      3 N           9.7683   41.5177    5.2712 N.ar    1  UNL1       -0.1187
      4 N          11.0880   41.6355    5.4039 N.ar    1  UNL1       -0.1239
      5 S          10.2283   41.1360    7.7197 S.2     1  UNL1       -0.0102
      6 C          13.7543   42.6364    6.8612 C.2     1  UNL1        0.2506
      7 N          12.8750   41.5285    7.0925 N.am    1  UNL1       -0.2592
      8 O          13.3365   43.6448    6.2285 O.2     1  UNL1       -0.2698
      9 H          13.2413   40.7537    7.5769 H       1  UNL1        0.1571
     10 C          15.1627   42.6113    7.3372 C.ar    1  UNL1        0.0498
     11 C          15.6467   41.7181    8.3297 C.ar    1  UNL1       -0.0175
     12 C          14.7815   40.7201    9.0209 C.3     1  UNL1        0.0312
     13 C          16.9916   41.7651    8.7127 C.ar    1  UNL1       -0.0041
     14 C          17.8663   42.6827    8.1300 C.ar    1  UNL1       -0.0003
     15 C          17.4007   43.5670    7.1588 C.ar    1  UNL1        0.0001
     16 C          16.0614   43.5305    6.7688 C.ar    1  UNL1        0.0042
     17 S           7.4122   41.0125    6.5812 S.O2    1  UNL1        0.1010
     18 O           7.0750   39.5598    6.3943 O.2     1  UNL1       -0.1477
     19 O           6.7202   41.8128    5.5131 O.2     1  UNL1       -0.1477
     20 C           5.6754   40.9202    8.7011 C.3     1  UNL1        0.1392
     21 N           6.8822   41.5272    8.1555 N.pl3   1  UNL1       -0.1870
     22 C           7.5814   42.5541    8.8884 C.ar    1  UNL1        0.0689
     23 C           8.2777   42.2407   10.0684 C.ar    1  UNL1        0.0161
     24 C           8.9532   43.2343   10.7828 C.ar    1  UNL1        0.0013
     25 C           8.9414   44.5542   10.3254 C.ar    1  UNL1        0.0001
     26 C           8.2555   44.8799    9.1534 C.ar    1  UNL1        0.0013
     27 C           7.5797   43.8859    8.4404 C.ar    1  UNL1        0.0161
@<TRIPOS>BOND
     1    20    21    1
     2    23    24   ar
     3    25    26   ar
     4    27    22   ar
     5     1     5   ar
     6     2     7    1
     7     2     5   ar
     8     6    10    1
     9    11    13   ar
    10    12    11    1
    11    14    15   ar
    12    16    10   ar
    13    21    22    1
    14     3     4   ar
    15     7     6   am
    16    17    21    1
    17    17     1    1
    18    22    23   ar
    19    24    25   ar
    20    26    27   ar
    21     1     3   ar
    22     2     4   ar
    23     6     8    2
    24    10    11   ar
    25    13    14   ar
    26    15    16   ar
    27    17    18    2
    28    17    19    2
    29     7     9    1
@<TRIPOS>MOLECULE
MolPort-007-723-430 15674591 ChemDiv-E157-5444 MCULE-7155321640 PubChem-22517996 ZINC000015674591 ZINC15674591
 27 29 0 0 0
SMALL
GASTEIGER

@<TRIPOS>ATOM
      1 C           9.0643   41.5517    6.5886 C.ar    1  UNL1        0.2593
      2 C          11.4227   41.7272    6.9139 C.ar    1  UNL1        0.1896
      3 N           9.7664   41.4177    5.4422 N.ar    1  UNL1       -0.1187
      4 N          11.0820   41.5167    5.6227 N.ar    1  UNL1       -0.1239
      5 S          10.0726   41.7997    7.9146 S.2     1  UNL1       -0.0102
      6 C          13.7902   42.6406    6.7392 C.2     1  UNL1        0.2506
      7 N          12.7676   41.8681    7.3808 N.am    1  UNL1       -0.2592
      8 O          13.5327   43.2483    5.6639 O.2     1  UNL1       -0.2698
      9 H          13.0104   41.3962    8.2101 H       1  UNL1        0.1571
     10 C          15.1612   42.7234    7.3085 C.ar    1  UNL1        0.0498
     11 C          15.6865   41.7938    8.2451 C.ar    1  UNL1       -0.0175
     12 C          14.9043   40.6422    8.7779 C.3     1  UNL1        0.0312
     13 C          16.9917   41.9503    8.7242 C.ar    1  UNL1       -0.0041
     14 C          17.7864   43.0127    8.2924 C.ar    1  UNL1       -0.0003
     15 C          17.2791   43.9333    7.3774 C.ar    1  UNL1        0.0001
     16 C          15.9785   43.7886    6.8926 C.ar    1  UNL1        0.0042
     17 S           7.3182   41.4432    6.6785 S.O2    1  UNL1        0.1010
     18 O           6.9034   40.0170    6.9087 O.2     1  UNL1       -0.1477
     19 O           6.7325   41.9152    5.3769 O.2     1  UNL1       -0.1477
     20 C           7.0270   43.8560    7.9485 C.3     1  UNL1        0.1392
     21 N           6.7397   42.4283    7.9896 N.pl3   1  UNL1       -0.1870
     22 C           6.0354   41.8548    9.1103 C.ar    1  UNL1        0.0689
     23 C           6.6560   41.7533   10.3673 C.ar    1  UNL1        0.0161
     24 C           5.9773   41.1947   11.4542 C.ar    1  UNL1        0.0013
     25 C           4.6689   40.7311   11.2977 C.ar    1  UNL1        0.0001
     26 C           4.0390   40.8274   10.0551 C.ar    1  UNL1        0.0013
     27 C           4.7187   41.3852    8.9688 C.ar    1  UNL1        0.0161
@<TRIPOS>BOND
     1    20    21    1
     2    23    24   ar
     3    25    26   ar
     4    27    22   ar
     5     1     5   ar
     6     2     7    1
     7     2     5   ar
     8     6    10    1
     9    11    13   ar
    10    12    11    1
    11    14    15   ar
    12    16    10   ar
    13    21    22    1
    14     3     4   ar
    15     7     6   am
    16    17    21    1
    17    17     1    1
    18    22    23   ar
    19    24    25   ar
    20    26    27   ar
    21     1     3   ar
    22     2     4   ar
    23     6     8    2
    24    10    11   ar
    25    13    14   ar
    26    15    16   ar
    27    17    18    2
    28    17    19    2
    29     7     9    1
@<TRIPOS>MOLECULE
MolPort-007-723-430 15674591 ChemDiv-E157-5444 MCULE-7155321640 PubChem-22517996 ZINC000015674591 ZINC15674591
 27 29 0 0 0
SMALL
GASTEIGER

@<TRIPOS>ATOM
      1 C           9.0809   41.3200    6.4789 C.ar    1  UNL1        0.2593
      2 C          11.4509   41.4819    6.7143 C.ar    1  UNL1        0.1896
      3 N           9.7448   41.0416    5.3358 N.ar    1  UNL1       -0.1187
      4 N          11.0669   41.1329    5.4660 N.ar    1  UNL1       -0.1239
      5 S          10.1338   41.6962    7.7384 S.2     1  UNL1       -0.0102
      6 C          13.6482   42.7611    6.7871 C.2     1  UNL1        0.2506
      7 N          12.8118   41.6469    7.1234 N.am    1  UNL1       -0.2592
      8 O          13.1943   43.6863    6.0592 O.2     1  UNL1       -0.2698
      9 H          13.2058   40.9375    7.6810 H       1  UNL1        0.1571
     10 C          15.0539   42.8380    7.2654 C.ar    1  UNL1        0.0498
     11 C          15.9604   43.8669    6.8953 C.ar    1  UNL1       -0.0175
     12 C          15.6022   44.9731    5.9625 C.3     1  UNL1        0.0312
     13 C          17.2657   43.8591    7.3989 C.ar    1  UNL1       -0.0041
     14 C          17.6899   42.8489    8.2628 C.ar    1  UNL1       -0.0003
     15 C          16.8100   41.8319    8.6284 C.ar    1  UNL1        0.0001
     16 C          15.5057   41.8281    8.1322 C.ar    1  UNL1        0.0042
     17 S           7.3367   41.2591    6.6306 S.O2    1  UNL1        0.1010
     18 O           6.8974   39.8569    6.9465 O.2     1  UNL1       -0.1477
     19 O           6.7187   41.6792    5.3261 O.2     1  UNL1       -0.1477
     20 C           7.1005   43.7459    7.7615 C.3     1  UNL1        0.1392
     21 N           6.8251   42.3228    7.9077 N.pl3   1  UNL1       -0.1870
     22 C           6.1876   41.8186    9.0993 C.ar    1  UNL1        0.0689
     23 C           4.8509   41.3853    9.0650 C.ar    1  UNL1        0.0161
     24 C           4.2292   40.8996   10.2190 C.ar    1  UNL1        0.0013
     25 C           4.9370   40.8406   11.4219 C.ar    1  UNL1        0.0001
     26 C           6.2662   41.2657   11.4704 C.ar    1  UNL1        0.0013
     27 C           6.8867   41.7520   10.3164 C.ar    1  UNL1        0.0161
@<TRIPOS>BOND
     1    20    21    1
     2    23    24   ar
     3    25    26   ar
     4    27    22   ar
     5     1     5   ar
     6     2     7    1
     7     2     5   ar
     8     6    10    1
     9    11    13   ar
    10    12    11    1
    11    14    15   ar
    12    16    10   ar
    13    21    22    1
    14     3     4   ar
    15     7     6   am
    16    17    21    1
    17    17     1    1
    18    22    23   ar
    19    24    25   ar
    20    26    27   ar
    21     1     3   ar
    22     2     4   ar
    23     6     8    2
    24    10    11   ar
    25    13    14   ar
    26    15    16   ar
    27    17    18    2
    28    17    19    2
    29     7     9    1
@<TRIPOS>MOLECULE
MolPort-007-723-430 15674591 ChemDiv-E157-5444 MCULE-7155321640 PubChem-22517996 ZINC000015674591 ZINC15674591
 27 29 0 0 0
SMALL
GASTEIGER

@<TRIPOS>ATOM
      1 C           9.2812   41.1369    6.3419 C.ar    1  UNL1        0.2593
      2 C          11.6509   41.3746    6.5050 C.ar    1  UNL1        0.1896
      3 N           9.9160   40.9093    5.1713 N.ar    1  UNL1       -0.1187
      4 N          11.2379   41.0429    5.2612 N.ar    1  UNL1       -0.1239
      5 S          10.3619   41.5186    7.5760 S.2     1  UNL1       -0.0102
      6 C          13.7642   42.7816    6.6613 C.2     1  UNL1        0.2506
      7 N          13.0183   41.5764    6.8742 N.am    1  UNL1       -0.2592
      8 O          13.2156   43.7637    6.0900 O.2     1  UNL1       -0.2698
      9 H          13.4847   40.8267    7.3097 H       1  UNL1        0.1571
     10 C          15.1854   42.8901    7.0846 C.ar    1  UNL1        0.0498
     11 C          15.7926   42.0364    8.0436 C.ar    1  UNL1       -0.0175
     12 C          15.0570   40.9490    8.7497 C.3     1  UNL1        0.0312
     13 C          17.1400   42.2116    8.3774 C.ar    1  UNL1       -0.0041
     14 C          17.8972   43.2187    7.7782 C.ar    1  UNL1       -0.0003
     15 C          17.3099   44.0649    6.8396 C.ar    1  UNL1        0.0001
     16 C          15.9667   43.9009    6.4987 C.ar    1  UNL1        0.0042
     17 S           7.5461   41.0122    6.5480 S.O2    1  UNL1        0.1010
     18 O           7.1282   39.5688    6.5216 O.2     1  UNL1       -0.1477
     19 O           6.8675   41.7349    5.4178 O.2     1  UNL1       -0.1477
     20 C           7.8042   41.2838    9.2644 C.3     1  UNL1        0.1392
     21 N           7.0880   41.7151    8.0713 N.pl3   1  UNL1       -0.1870
     22 C           6.0047   42.6625    8.1695 C.ar    1  UNL1        0.0689
     23 C           6.0762   43.8999    7.5066 C.ar    1  UNL1        0.0161
     24 C           5.0297   44.8216    7.6028 C.ar    1  UNL1        0.0013
     25 C           3.8979   44.5169    8.3629 C.ar    1  UNL1        0.0001
     26 C           3.8122   43.2905    9.0252 C.ar    1  UNL1        0.0013
     27 C           4.8594   42.3701    8.9291 C.ar    1  UNL1        0.0161
@<TRIPOS>BOND
     1    20    21    1
     2    23    24   ar
     3    25    26   ar
     4    27    22   ar
     5     1     5   ar
     6     2     7    1
     7     2     5   ar
     8     6    10    1
     9    11    13   ar
    10    12    11    1
    11    14    15   ar
    12    16    10   ar
    13    21    22    1
    14     3     4   ar
    15     7     6   am
    16    17    21    1
    17    17     1    1
    18    22    23   ar
    19    24    25   ar
    20    26    27   ar
    21     1     3   ar
    22     2     4   ar
    23     6     8    2
    24    10    11   ar
    25    13    14   ar
    26    15    16   ar
    27    17    18    2
    28    17    19    2
    29     7     9    1
@<TRIPOS>MOLECULE
MolPort-007-723-430 15674591 ChemDiv-E157-5444 MCULE-7155321640 PubChem-22517996 ZINC000015674591 ZINC15674591
 27 29 0 0 0
SMALL
GASTEIGER

@<TRIPOS>ATOM
      1 C          12.8571   38.4588   10.4669 C.ar    1  UNL1        0.2593
      2 C          10.9233   39.6140    9.6769 C.ar    1  UNL1        0.1896
      3 N          12.1155   37.7221    9.6112 N.ar    1  UNL1       -0.1187
      4 N          11.0359   38.3654    9.1710 N.ar    1  UNL1       -0.1239
      5 S          12.1914   39.9853   10.7177 S.2     1  UNL1       -0.0102
      6 C           9.9258   41.5750    8.4005 C.2     1  UNL1        0.2506
      7 N           9.8588   40.5177    9.3657 N.am    1  UNL1       -0.2592
      8 O          10.9962   41.7722    7.7624 O.2     1  UNL1       -0.2698
      9 H           9.0116   40.4042    9.8542 H       1  UNL1        0.1571
     10 C           8.7585   42.4613    8.1501 C.ar    1  UNL1        0.0498
     11 C           8.4065   43.5594    8.9793 C.ar    1  UNL1       -0.0175
     12 C           9.1621   43.9270   10.2106 C.3     1  UNL1        0.0312
     13 C           7.2906   44.3416    8.6624 C.ar    1  UNL1       -0.0041
     14 C           6.5159   44.0548    7.5381 C.ar    1  UNL1       -0.0003
     15 C           6.8495   42.9767    6.7204 C.ar    1  UNL1        0.0001
     16 C           7.9597   42.1886    7.0262 C.ar    1  UNL1        0.0042
     17 S          14.3485   37.8968   11.1942 S.O2    1  UNL1        0.1010
     18 O          14.2323   36.4396   11.5435 O.2     1  UNL1       -0.1477
     19 O          14.6025   38.6790   12.4527 O.2     1  UNL1       -0.1477
     20 C          16.2402   39.4480    9.9554 C.3     1  UNL1        0.1392
     21 N          15.6616   38.1163   10.0754 N.pl3   1  UNL1       -0.1870
     22 C          16.1417   37.0323    9.2538 C.ar    1  UNL1        0.0689
     23 C          15.3111   36.4532    8.2790 C.ar    1  UNL1        0.0161
     24 C          15.7723   35.4001    7.4838 C.ar    1  UNL1        0.0013
     25 C          17.0707   34.9133    7.6532 C.ar    1  UNL1        0.0001
     26 C          17.9078   35.4803    8.6164 C.ar    1  UNL1        0.0013
     27 C          17.4455   36.5325    9.4115 C.ar    1  UNL1        0.0161
@<TRIPOS>BOND
     1    20    21    1
     2    23    24   ar
     3    25    26   ar
     4    27    22   ar
     5     1     5   ar
     6     2     7    1
     7     2     5   ar
     8     6    10    1
     9    11    13   ar
    10    12    11    1
    11    14    15   ar
    12    16    10   ar
    13    21    22    1
    14     3     4   ar
    15     7     6   am
    16    17    21    1
    17    17     1    1
    18    22    23   ar
    19    24    25   ar
    20    26    27   ar
    21     1     3   ar
    22     2     4   ar
    23     6     8    2
    24    10    11   ar
    25    13    14   ar
    26    15    16   ar
    27    17    18    2
    28    17    19    2
    29     7     9    1
@<TRIPOS>MOLECULE
MolPort-007-723-430 15674591 ChemDiv-E157-5444 MCULE-7155321640 PubChem-22517996 ZINC000015674591 ZINC15674591
 27 29 0 0 0
SMALL
GASTEIGER

@<TRIPOS>ATOM
      1 C          10.1324   39.7341    6.6468 C.ar    1  UNL1        0.2593
      2 C          12.2595   40.7827    6.9194 C.ar    1  UNL1        0.1896
      3 N          10.8388   39.2325    7.6834 N.ar    1  UNL1       -0.1187
      4 N          12.0260   39.8161    7.8353 N.ar    1  UNL1       -0.1239
      5 S          10.9697   40.9619    5.8546 S.2     1  UNL1       -0.0102
      6 C          14.4541   41.6316    7.8853 C.2     1  UNL1        0.2506
      7 N          13.4554   41.5656    6.8595 N.am    1  UNL1       -0.2592
      8 O          14.2989   40.9760    8.9520 O.2     1  UNL1       -0.2698
      9 H          13.6044   42.1025    6.0478 H       1  UNL1        0.1571
     10 C          15.6657   42.4782    7.7241 C.ar    1  UNL1        0.0498
     11 C          16.9037   42.2191    8.3702 C.ar    1  UNL1       -0.0175
     12 C          17.1131   41.0759    9.3038 C.3     1  UNL1        0.0312
     13 C          17.9929   43.0706    8.1554 C.ar    1  UNL1       -0.0041
     14 C          17.8774   44.1758    7.3117 C.ar    1  UNL1       -0.0003
     15 C          16.6658   44.4420    6.6766 C.ar    1  UNL1        0.0001
     16 C          15.5719   43.6007    6.8833 C.ar    1  UNL1        0.0042
     17 S           8.5255   39.1898    6.2106 S.O2    1  UNL1        0.1010
     18 O           8.2817   37.8135    6.7633 O.2     1  UNL1       -0.1477
     19 O           8.4184   39.1371    4.7120 O.2     1  UNL1       -0.1477
     20 C           5.9700   40.1688    6.3843 C.3     1  UNL1        0.1392
     21 N           7.3423   40.2870    6.8590 N.pl3   1  UNL1       -0.1870
     22 C           7.7046   41.3150    7.8038 C.ar    1  UNL1        0.0689
     23 C           7.6833   42.6693    7.4284 C.ar    1  UNL1        0.0161
     24 C           8.0374   43.6675    8.3406 C.ar    1  UNL1        0.0013
     25 C           8.4168   43.3236    9.6403 C.ar    1  UNL1        0.0001
     26 C           8.4407   41.9823   10.0279 C.ar    1  UNL1        0.0013
     27 C           8.0873   40.9849    9.1149 C.ar    1  UNL1        0.0161
@<TRIPOS>BOND
     1    20    21    1
     2    23    24   ar
     3    25    26   ar
     4    27    22   ar
     5     1     5   ar
     6     2     7    1
     7     2     5   ar
     8     6    10    1
     9    11    13   ar
    10    12    11    1
    11    14    15   ar
    12    16    10   ar
    13    21    22    1
    14     3     4   ar
    15     7     6   am
    16    17    21    1
    17    17     1    1
    18    22    23   ar
    19    24    25   ar
    20    26    27   ar
    21     1     3   ar
    22     2     4   ar
    23     6     8    2
    24    10    11   ar
    25    13    14   ar
    26    15    16   ar
    27    17    18    2
    28    17    19    2
    29     7     9    1
@<TRIPOS>MOLECULE
MolPort-007-723-430 15674591 ChemDiv-E157-5444 MCULE-7155321640 PubChem-22517996 ZINC000015674591 ZINC15674591
 27 29 0 0 0
SMALL
GASTEIGER

@<TRIPOS>ATOM
      1 C           9.8447   40.4481    6.7218 C.ar    1  UNL1        0.2593
      2 C          11.9022   41.3174    7.5642 C.ar    1  UNL1        0.1896
      3 N           9.6863   41.1854    7.8427 N.ar    1  UNL1       -0.1187
      4 N          10.8338   41.6697    8.3139 N.ar    1  UNL1       -0.1239
      5 S          11.4591   40.3669    6.2490 S.2     1  UNL1       -0.0102
      6 C          14.0941   42.4634    6.9712 C.2     1  UNL1        0.2506
      7 N          13.2497   41.7059    7.8470 N.am    1  UNL1       -0.2592
      8 O          13.6613   42.8234    5.8420 O.2     1  UNL1       -0.2698
      9 H          13.6276   41.4305    8.7134 H       1  UNL1        0.1571
     10 C          15.4845   42.8176    7.3614 C.ar    1  UNL1        0.0498
     11 C          16.1662   43.9740    6.8975 C.ar    1  UNL1       -0.0175
     12 C          15.5635   44.9490    5.9445 C.3     1  UNL1        0.0312
     13 C          17.4749   44.2280    7.3224 C.ar    1  UNL1       -0.0041
     14 C          18.1212   43.3558    8.1988 C.ar    1  UNL1       -0.0003
     15 C          17.4631   42.2157    8.6562 C.ar    1  UNL1        0.0001
     16 C          16.1580   41.9508    8.2392 C.ar    1  UNL1        0.0042
     17 S           8.5194   39.7010    5.8534 S.O2    1  UNL1        0.1010
     18 O           8.5308   38.2150    6.0784 O.2     1  UNL1       -0.1477
     19 O           8.6855   39.9708    4.3838 O.2     1  UNL1       -0.1477
     20 C           5.8022   39.5713    6.1984 C.3     1  UNL1        0.1392
     21 N           7.0102   40.3557    6.4173 N.pl3   1  UNL1       -0.1870
     22 C           6.9378   41.6532    7.0433 C.ar    1  UNL1        0.0689
     23 C           6.7799   41.7665    8.4353 C.ar    1  UNL1        0.0161
     24 C           6.7057   43.0225    9.0444 C.ar    1  UNL1        0.0013
     25 C           6.7893   44.1813    8.2686 C.ar    1  UNL1        0.0001
     26 C           6.9483   44.0840    6.8847 C.ar    1  UNL1        0.0013
     27 C           7.0214   42.8278    6.2766 C.ar    1  UNL1        0.0161
@<TRIPOS>BOND
     1    20    21    1
     2    23    24   ar
     3    25    26   ar
     4    27    22   ar
     5     1     5   ar
     6     2     7    1
     7     2     5   ar
     8     6    10    1
     9    11    13   ar
    10    12    11    1
    11    14    15   ar
    12    16    10   ar
    13    21    22    1
    14     3     4   ar
    15     7     6   am
    16    17    21    1
    17    17     1    1
    18    22    23   ar
    19    24    25   ar
    20    26    27   ar
    21     1     3   ar
    22     2     4   ar
    23     6     8    2
    24    10    11   ar
    25    13    14   ar
    26    15    16   ar
    27    17    18    2
    28    17    19    2
    29     7     9    1
@<TRIPOS>MOLECULE
MolPort-007-723-430 15674591 ChemDiv-E157-5444 MCULE-7155321640 PubChem-22517996 ZINC000015674591 ZINC15674591
 27 29 0 0 0
SMALL
GASTEIGER

@<TRIPOS>ATOM
      1 C          12.9861   38.3995   10.5989 C.ar    1  UNL1        0.2593
      2 C          11.0192   39.4732    9.7759 C.ar    1  UNL1        0.1896
      3 N          12.1831   37.5667    9.9011 N.ar    1  UNL1       -0.1187
      4 N          11.0852   38.1647    9.4427 N.ar    1  UNL1       -0.1239
      5 S          12.3551   39.9591   10.6752 S.2     1  UNL1       -0.0102
      6 C          10.0316   41.3968    8.4365 C.2     1  UNL1        0.2506
      7 N           9.9474   40.3466    9.4080 N.am    1  UNL1       -0.2592
      8 O          11.1247   41.6159    7.8456 O.2     1  UNL1       -0.2698
      9 H           9.0820   40.2155    9.8587 H       1  UNL1        0.1571
     10 C           8.8549   42.2506    8.1248 C.ar    1  UNL1        0.0498
     11 C           7.9604   42.0033    7.0497 C.ar    1  UNL1       -0.0175
     12 C           8.1221   40.8665    6.0989 C.3     1  UNL1        0.0312
     13 C           6.8761   42.8609    6.8347 C.ar    1  UNL1       -0.0041
     14 C           6.6622   43.9608    7.6660 C.ar    1  UNL1       -0.0003
     15 C           7.5366   44.2155    8.7208 C.ar    1  UNL1        0.0001
     16 C           8.6222   43.3679    8.9452 C.ar    1  UNL1        0.0042
     17 S          14.5141   37.9134   11.3043 S.O2    1  UNL1        0.1010
     18 O          14.4514   36.4708   11.7213 O.2     1  UNL1       -0.1477
     19 O          14.7816   38.7586   12.5185 O.2     1  UNL1       -0.1477
     20 C          16.3950   39.4375   10.0165 C.3     1  UNL1        0.1392
     21 N          15.7867   38.1192   10.1371 N.pl3   1  UNL1       -0.1870
     22 C          16.2048   37.0381    9.2786 C.ar    1  UNL1        0.0689
     23 C          17.5069   36.5167    9.3698 C.ar    1  UNL1        0.0161
     24 C          17.9161   35.4715    8.5367 C.ar    1  UNL1        0.0013
     25 C          17.0278   34.9341    7.6021 C.ar    1  UNL1        0.0001
     26 C          15.7304   35.4408    7.5017 C.ar    1  UNL1        0.0013
     27 C          15.3224   36.4863    8.3345 C.ar    1  UNL1        0.0161
@<TRIPOS>BOND
     1    20    21    1
     2    23    24   ar
     3    25    26   ar
     4    27    22   ar
     5     1     5   ar
     6     2     7    1
     7     2     5   ar
     8     6    10    1
     9    11    13   ar
    10    12    11    1
    11    14    15   ar
    12    16    10   ar
    13    21    22    1
    14     3     4   ar
    15     7     6   am
    16    17    21    1
    17    17     1    1
    18    22    23   ar
    19    24    25   ar
    20    26    27   ar
    21     1     3   ar
    22     2     4   ar
    23     6     8    2
    24    10    11   ar
    25    13    14   ar
    26    15    16   ar
    27    17    18    2
    28    17    19    2
    29     7     9    1
@<TRIPOS>MOLECULE
MolPort-007-723-430 15674591 ChemDiv-E157-5444 MCULE-7155321640 PubChem-22517996 ZINC000015674591 ZINC15674591
 27 29 0 0 0
SMALL
GASTEIGER

@<TRIPOS>ATOM
      1 C           8.1024   39.8622    7.0065 C.ar    1  UNL1        0.2593
      2 C          10.0341   38.8410    7.9678 C.ar    1  UNL1        0.1896
      3 N           8.1791   38.5372    6.7546 N.ar    1  UNL1       -0.1187
      4 N           9.2571   37.9670    7.2895 N.ar    1  UNL1       -0.1239
      5 S           9.4011   40.3990    7.9347 S.2     1  UNL1       -0.0102
      6 C          11.6133   38.9050    9.9607 C.2     1  UNL1        0.2506
      7 N          11.2478   38.4893    8.6388 N.am    1  UNL1       -0.2592
      8 O          10.8402   39.6565   10.6161 O.2     1  UNL1       -0.2698
      9 H          11.8833   37.9153    8.1531 H       1  UNL1        0.1571
     10 C          12.9020   38.4821   10.5699 C.ar    1  UNL1        0.0498
     11 C          13.2116   37.1393   10.9139 C.ar    1  UNL1       -0.0175
     12 C          12.2606   36.0077   10.7209 C.3     1  UNL1        0.0312
     13 C          14.4539   36.8345   11.4807 C.ar    1  UNL1       -0.0041
     14 C          15.3957   37.8371   11.7139 C.ar    1  UNL1       -0.0003
     15 C          15.1003   39.1587   11.3847 C.ar    1  UNL1        0.0001
     16 C          13.8644   39.4756   10.8194 C.ar    1  UNL1        0.0042
     17 S           6.7877   40.8822    6.4588 S.O2    1  UNL1        0.1010
     18 O           5.5852   40.0405    6.1355 O.2     1  UNL1       -0.1477
     19 O           7.2197   41.6095    5.2160 O.2     1  UNL1       -0.1477
     20 C           6.6564   43.4288    7.4671 C.3     1  UNL1        0.1392
     21 N           6.3736   42.0199    7.7071 N.pl3   1  UNL1       -0.1870
     22 C           5.8089   41.5897    8.9628 C.ar    1  UNL1        0.0689
     23 C           6.5734   41.6325   10.1414 C.ar    1  UNL1        0.0161
     24 C           6.0302   41.2129   11.3591 C.ar    1  UNL1        0.0013
     25 C           4.7148   40.7456   11.4133 C.ar    1  UNL1        0.0001
     26 C           3.9428   40.6993   10.2507 C.ar    1  UNL1        0.0013
     27 C           4.4871   41.1183    9.0336 C.ar    1  UNL1        0.0161
@<TRIPOS>BOND
     1    20    21    1
     2    23    24   ar
     3    25    26   ar
     4    27    22   ar
     5     1     5   ar
     6     2     7    1
     7     2     5   ar
     8     6    10    1
     9    11    13   ar
    10    12    11    1
    11    14    15   ar
    12    16    10   ar
    13    21    22    1
    14     3     4   ar
    15     7     6   am
    16    17    21    1
    17    17     1    1
    18    22    23   ar
    19    24    25   ar
    20    26    27   ar
    21     1     3   ar
    22     2     4   ar
    23     6     8    2
    24    10    11   ar
    25    13    14   ar
    26    15    16   ar
    27    17    18    2
    28    17    19    2
    29     7     9    1
@<TRIPOS>MOLECULE
MolPort-007-723-430 15674591 ChemDiv-E157-5444 MCULE-7155321640 PubChem-22517996 ZINC000015674591 ZINC15674591
 27 29 0 0 0
SMALL
GASTEIGER

@<TRIPOS>ATOM
      1 C           8.7743   42.1531    6.8204 C.ar    1  UNL1        0.2593
      2 C          11.0621   41.6859    7.3165 C.ar    1  UNL1        0.1896
      3 N           9.4924   41.8140    5.7276 N.ar    1  UNL1       -0.1187
      4 N          10.7691   41.5544    6.0034 N.ar    1  UNL1       -0.1239
      5 S           9.7156   42.1398    8.2168 S.2     1  UNL1       -0.0102
      6 C          13.5900   41.9656    7.3474 C.2     1  UNL1        0.2506
      7 N          12.3580   41.4635    7.8804 N.am    1  UNL1       -0.2592
      8 O          13.5801   42.6494    6.2871 O.2     1  UNL1       -0.2698
      9 H          12.4075   40.9217    8.7009 H       1  UNL1        0.1571
     10 C          14.8884   41.6775    8.0123 C.ar    1  UNL1        0.0498
     11 C          16.0775   42.4189    7.7810 C.ar    1  UNL1       -0.0175
     12 C          16.1554   43.5576    6.8221 C.3     1  UNL1        0.0312
     13 C          17.2540   42.0765    8.4564 C.ar    1  UNL1       -0.0041
     14 C          17.2739   41.0112    9.3571 C.ar    1  UNL1       -0.0003
     15 C          16.1139   40.2739    9.5877 C.ar    1  UNL1        0.0001
     16 C          14.9344   40.6051    8.9197 C.ar    1  UNL1        0.0042
     17 S           7.0629   42.5252    6.7829 S.O2    1  UNL1        0.1010
     18 O           6.5923   42.6355    5.3598 O.2     1  UNL1       -0.1477
     19 O           6.8345   43.8411    7.4731 O.2     1  UNL1       -0.1477
     20 C           6.0796   39.9693    6.9242 C.3     1  UNL1        0.1392
     21 N           6.1744   41.2640    7.5855 N.pl3   1  UNL1       -0.1870
     22 C           5.5100   41.4935    8.8451 C.ar    1  UNL1        0.0689
     23 C           6.1791   41.2579   10.0585 C.ar    1  UNL1        0.0161
     24 C           5.5367   41.4760   11.2807 C.ar    1  UNL1        0.0013
     25 C           4.2169   41.9332   11.3047 C.ar    1  UNL1        0.0001
     26 C           3.5404   42.1735   10.1069 C.ar    1  UNL1        0.0013
     27 C           4.1832   41.9543    8.8855 C.ar    1  UNL1        0.0161
@<TRIPOS>BOND
     1    20    21    1
     2    23    24   ar
     3    25    26   ar
     4    27    22   ar
     5     1     5   ar
     6     2     7    1
     7     2     5   ar
     8     6    10    1
     9    11    13   ar
    10    12    11    1
    11    14    15   ar
    12    16    10   ar
    13    21    22    1
    14     3     4   ar
    15     7     6   am
    16    17    21    1
    17    17     1    1
    18    22    23   ar
    19    24    25   ar
    20    26    27   ar
    21     1     3   ar
    22     2     4   ar
    23     6     8    2
    24    10    11   ar
    25    13    14   ar
    26    15    16   ar
    27    17    18    2
    28    17    19    2
    29     7     9    1
