@<TRIPOS>MOLECULE
MolPort-045-928-263 952962461 CSSS00160205879 MCULE-4026858819 PubChem-131930738 ZINC000952962461
 25 26 0 0 0
SMALL
GASTEIGER

@<TRIPOS>ATOM
      1 C          10.7066   41.1200    8.9758 C.ar    1  UNL1        0.0611
      2 C          11.4424   42.2989    9.1320 C.ar    1  UNL1        0.0168
      3 C          12.2063   42.8023    8.0775 C.ar    1  UNL1        0.0160
      4 C          12.2619   42.1179    6.8560 C.ar    1  UNL1        0.0515
      5 C          11.5402   40.9318    6.7009 C.ar    1  UNL1        0.0273
      6 C          10.7711   40.4207    7.7512 C.ar    1  UNL1        0.0723
      7 CL          9.9926   38.8630    7.5166 Cl      1  UNL1       -0.0809
      8 C           9.4174   41.4704   11.1277 C.2     1  UNL1        0.2256
      9 O           9.7773   42.6757   11.2302 O.2     1  UNL1       -0.2748
     10 N           9.9471   40.6394   10.0908 N.am    1  UNL1       -0.2833
     11 H           9.7780   39.6712   10.1475 H       1  UNL1        0.1549
     12 C           8.8830   41.2148   13.5300 C.3     1  UNL1        0.0096
     13 C           8.4602   40.8836   12.1117 C.3     1  UNL1        0.0768
     14 C           7.0562   41.3981   11.8584 C.3     1  UNL1        0.0096
     15 C          14.2299   43.3751    5.8251 C.2     1  UNL1        0.2511
     16 O          14.4179   44.3153    5.0079 O.2     1  UNL1       -0.2698
     17 N          13.0064   42.6307    5.7446 N.am    1  UNL1       -0.2803
     18 H          12.6460   42.4567    4.8451 H       1  UNL1        0.1552
     19 C          15.2955   43.0318    6.7904 C.ar    1  UNL1        0.0750
     20 C          16.4094   43.8627    6.9654 C.ar    1  UNL1        0.0373
     21 C          17.3903   43.5326    7.9006 C.ar    1  UNL1        0.1594
     22 C          17.2430   42.3749    8.6657 C.ar    1  UNL1        0.1284
     23 C          15.1837   41.8859    7.5894 C.ar    1  UNL1        0.1035
     24 N          16.1505   41.5827    8.4973 N.ar    1  UNL1       -0.2398
     25 F          18.4727   44.3295    8.0663 F       1  UNL1       -0.2025
@<TRIPOS>BOND
     1    12    13    1
     2    13    14    1
     3    13     8    1
     4     8    10   am
     5     2     3   ar
     6     4    17    1
     7     4     5   ar
     8    15    19    1
     9    20    21   ar
    10    21    25    1
    11    22    24   ar
    12    23    19   ar
    13     6     7    1
    14     6     1   ar
    15    10     1    1
    16    17    15   am
    17     8     9    2
    18     1     2   ar
    19     3     4   ar
    20    15    16    2
    21    19    20   ar
    22    21    22   ar
    23    23    24   ar
    24     5     6   ar
    25    10    11    1
    26    17    18    1
@<TRIPOS>MOLECULE
MolPort-045-928-263 952962461 CSSS00160205879 MCULE-4026858819 PubChem-131930738 ZINC000952962461
 25 26 0 0 0
SMALL
GASTEIGER

@<TRIPOS>ATOM
      1 C          12.3219   39.4785    8.0056 C.ar    1  UNL1        0.0611
      2 C          11.7809   39.5843    6.7204 C.ar    1  UNL1        0.0168
      3 C          12.0305   40.7126    5.9371 C.ar    1  UNL1        0.0160
      4 C          12.8090   41.7635    6.4403 C.ar    1  UNL1        0.0515
      5 C          13.3389   41.6683    7.7294 C.ar    1  UNL1        0.0273
      6 C          13.0953   40.5413    8.5209 C.ar    1  UNL1        0.0723
      7 CL         13.6944   40.5525   10.1726 Cl      1  UNL1       -0.0809
      8 C          12.9728   37.2726    9.0666 C.2     1  UNL1        0.2256
      9 O          14.0867   37.2354    8.4746 O.2     1  UNL1       -0.2748
     10 N          12.0279   38.3057    8.7731 N.am    1  UNL1       -0.2833
     11 H          11.1131   38.2035    9.1225 H       1  UNL1        0.1549
     12 C          13.5180   36.2856   11.2690 C.3     1  UNL1        0.0096
     13 C          12.6099   36.2155   10.0563 C.3     1  UNL1        0.0768
     14 C          11.1631   36.3643   10.4859 C.3     1  UNL1        0.0096
     15 C          14.1265   43.8900    5.9320 C.2     1  UNL1        0.2511
     16 O          13.8906   45.0995    5.6698 O.2     1  UNL1       -0.2698
     17 N          13.1134   42.9159    5.6454 N.am    1  UNL1       -0.2803
     18 H          12.5794   43.0513    4.8295 H       1  UNL1        0.1552
     19 C          15.4530   43.5102    6.4625 C.ar    1  UNL1        0.0750
     20 C          15.5737   42.7011    7.5994 C.ar    1  UNL1        0.0373
     21 C          16.8353   42.3336    8.0676 C.ar    1  UNL1        0.1594
     22 C          17.9714   42.7702    7.3850 C.ar    1  UNL1        0.1284
     23 C          16.6211   43.9150    5.8025 C.ar    1  UNL1        0.1035
     24 N          17.8420   43.5441    6.2743 N.ar    1  UNL1       -0.2398
     25 F          16.9557   41.5582    9.1714 F       1  UNL1       -0.2025
@<TRIPOS>BOND
     1    12    13    1
     2    13    14    1
     3    13     8    1
     4     8    10   am
     5     2     3   ar
     6     4    17    1
     7     4     5   ar
     8    15    19    1
     9    20    21   ar
    10    21    25    1
    11    22    24   ar
    12    23    19   ar
    13     6     7    1
    14     6     1   ar
    15    10     1    1
    16    17    15   am
    17     8     9    2
    18     1     2   ar
    19     3     4   ar
    20    15    16    2
    21    19    20   ar
    22    21    22   ar
    23    23    24   ar
    24     5     6   ar
    25    10    11    1
    26    17    18    1
@<TRIPOS>MOLECULE
MolPort-045-928-263 952962461 CSSS00160205879 MCULE-4026858819 PubChem-131930738 ZINC000952962461
 25 26 0 0 0
SMALL
GASTEIGER

@<TRIPOS>ATOM
      1 C          15.4459   38.9277    9.5467 C.ar    1  UNL1        0.0611
      2 C          14.7595   40.0326    9.0333 C.ar    1  UNL1        0.0168
      3 C          15.4006   41.2655    8.8995 C.ar    1  UNL1        0.0160
      4 C          16.7351   41.4148    9.3003 C.ar    1  UNL1        0.0515
      5 C          17.4197   40.3171    9.8277 C.ar    1  UNL1        0.0273
      6 C          16.7861   39.0779    9.9642 C.ar    1  UNL1        0.0723
      7 CL         17.6768   37.7820   10.7483 Cl      1  UNL1       -0.0809
      8 C          13.8865   37.3510   10.7707 C.2     1  UNL1        0.2256
      9 O          13.8724   38.0612   11.8138 O.2     1  UNL1       -0.2748
     10 N          14.7407   37.6877    9.6737 N.am    1  UNL1       -0.2833
     11 H          14.8513   37.0216    8.9573 H       1  UNL1        0.1549
     12 C          11.6060   36.4927   10.3412 C.3     1  UNL1        0.0096
     13 C          13.0377   36.1261   10.6817 C.3     1  UNL1        0.0768
     14 C          13.5883   35.1732    9.6383 C.3     1  UNL1        0.0096
     15 C          17.4761   43.4444    7.9410 C.2     1  UNL1        0.2511
     16 O          18.5485   44.0389    7.6518 O.2     1  UNL1       -0.2698
     17 N          17.4298   42.6573    9.1392 N.am    1  UNL1       -0.2803
     18 H          17.9192   43.0018    9.9209 H       1  UNL1        0.1552
     19 C          16.2914   43.6279    7.0761 C.ar    1  UNL1        0.0750
     20 C          15.2822   42.6586    7.0148 C.ar    1  UNL1        0.0373
     21 C          14.1605   42.8642    6.2117 C.ar    1  UNL1        0.1594
     22 C          14.0503   44.0484    5.4818 C.ar    1  UNL1        0.1284
     23 C          16.1323   44.8068    6.3353 C.ar    1  UNL1        0.1035
     24 N          15.0296   44.9888    5.5594 N.ar    1  UNL1       -0.2398
     25 F          13.1868   41.9252    6.1438 F       1  UNL1       -0.2025
@<TRIPOS>BOND
     1    12    13    1
     2    13    14    1
     3    13     8    1
     4     8    10   am
     5     2     3   ar
     6     4    17    1
     7     4     5   ar
     8    15    19    1
     9    20    21   ar
    10    21    25    1
    11    22    24   ar
    12    23    19   ar
    13     6     7    1
    14     6     1   ar
    15    10     1    1
    16    17    15   am
    17     8     9    2
    18     1     2   ar
    19     3     4   ar
    20    15    16    2
    21    19    20   ar
    22    21    22   ar
    23    23    24   ar
    24     5     6   ar
    25    10    11    1
    26    17    18    1
@<TRIPOS>MOLECULE
MolPort-045-928-263 952962461 CSSS00160205879 MCULE-4026858819 PubChem-131930738 ZINC000952962461
 25 26 0 0 0
SMALL
GASTEIGER

@<TRIPOS>ATOM
      1 C          10.5529   40.0023    9.1589 C.ar    1  UNL1        0.0611
      2 C          11.4587   39.3986    8.2811 C.ar    1  UNL1        0.0168
      3 C          12.8083   39.2882    8.6208 C.ar    1  UNL1        0.0160
      4 C          13.2746   39.8026    9.8380 C.ar    1  UNL1        0.0515
      5 C          12.3755   40.4198   10.7112 C.ar    1  UNL1        0.0273
      6 C          11.0215   40.5338   10.3799 C.ar    1  UNL1        0.0723
      7 CL          9.9807   41.4306   11.4753 Cl      1  UNL1       -0.0809
      8 C           8.6301   41.1924    8.0180 C.2     1  UNL1        0.2256
      9 O           9.2924   42.2538    7.8522 O.2     1  UNL1       -0.2748
     10 N           9.1810   40.1003    8.7596 N.am    1  UNL1       -0.2833
     11 H           8.5760   39.3661    9.0128 H       1  UNL1        0.1549
     12 C           6.2202   41.2885    8.5705 C.3     1  UNL1        0.0096
     13 C           7.2451   41.0757    7.4730 C.3     1  UNL1        0.0768
     14 C           7.0258   42.0822    6.3600 C.3     1  UNL1        0.0096
     15 C          15.7843   40.0564    9.4472 C.2     1  UNL1        0.2511
     16 O          16.8179   39.3373    9.4908 O.2     1  UNL1       -0.2698
     17 N          14.6462   39.6696   10.2298 N.am    1  UNL1       -0.2803
     18 H          14.8234   39.2776   11.1153 H       1  UNL1        0.1552
     19 C          15.8012   41.2994    8.6472 C.ar    1  UNL1        0.0750
     20 C          16.8700   42.2006    8.7316 C.ar    1  UNL1        0.0373
     21 C          16.8774   43.3547    7.9483 C.ar    1  UNL1        0.1594
     22 C          15.8167   43.5938    7.0737 C.ar    1  UNL1        0.1284
     23 C          14.7637   41.5747    7.7463 C.ar    1  UNL1        0.1035
     24 N          14.7908   42.7051    6.9898 N.ar    1  UNL1       -0.2398
     25 F          17.9054   44.2323    8.0336 F       1  UNL1       -0.2025
@<TRIPOS>BOND
     1    12    13    1
     2    13    14    1
     3    13     8    1
     4     8    10   am
     5     2     3   ar
     6     4    17    1
     7     4     5   ar
     8    15    19    1
     9    20    21   ar
    10    21    25    1
    11    22    24   ar
    12    23    19   ar
    13     6     7    1
    14     6     1   ar
    15    10     1    1
    16    17    15   am
    17     8     9    2
    18     1     2   ar
    19     3     4   ar
    20    15    16    2
    21    19    20   ar
    22    21    22   ar
    23    23    24   ar
    24     5     6   ar
    25    10    11    1
    26    17    18    1
@<TRIPOS>MOLECULE
MolPort-045-928-263 952962461 CSSS00160205879 MCULE-4026858819 PubChem-131930738 ZINC000952962461
 25 26 0 0 0
SMALL
GASTEIGER

@<TRIPOS>ATOM
      1 C          10.2834   40.3721    8.9992 C.ar    1  UNL1        0.0611
      2 C          10.6815   40.7092   10.2967 C.ar    1  UNL1        0.0168
      3 C          12.0058   40.5299   10.7006 C.ar    1  UNL1        0.0160
      4 C          12.9471   39.9879    9.8152 C.ar    1  UNL1        0.0515
      5 C          12.5498   39.6359    8.5229 C.ar    1  UNL1        0.0273
      6 C          11.2257   39.8131    8.1090 C.ar    1  UNL1        0.0723
      7 CL         10.7799   39.2328    6.5115 Cl      1  UNL1       -0.0809
      8 C           8.3589   41.8078    8.1925 C.2     1  UNL1        0.2256
      9 O           9.0197   42.8777    8.2983 O.2     1  UNL1       -0.2748
     10 N           8.9114   40.5654    8.6369 N.am    1  UNL1       -0.2833
     11 H           8.3073   39.7904    8.6977 H       1  UNL1        0.1549
     12 C           6.8424   42.9057    6.5748 C.3     1  UNL1        0.0096
     13 C           6.9740   41.8296    7.6354 C.3     1  UNL1        0.0768
     14 C           6.6173   40.4784    7.0463 C.3     1  UNL1        0.0096
     15 C          15.4561   40.1543    9.3758 C.2     1  UNL1        0.2511
     16 O          16.4691   39.4071    9.4281 O.2     1  UNL1       -0.2698
     17 N          14.3207   39.8283   10.1894 N.am    1  UNL1       -0.2803
     18 H          14.5015   39.4621   11.0852 H       1  UNL1        0.1552
     19 C          15.4951   41.3679    8.5326 C.ar    1  UNL1        0.0750
     20 C          16.6033   42.2244    8.5469 C.ar    1  UNL1        0.0373
     21 C          16.6298   43.3502    7.7238 C.ar    1  UNL1        0.1594
     22 C          15.5481   43.6055    6.8800 C.ar    1  UNL1        0.1284
     23 C          14.4371   41.6575    7.6605 C.ar    1  UNL1        0.1035
     24 N          14.4833   42.7597    6.8643 N.ar    1  UNL1       -0.2398
     25 F          17.6961   44.1849    7.7413 F       1  UNL1       -0.2025
@<TRIPOS>BOND
     1    12    13    1
     2    13    14    1
     3    13     8    1
     4     8    10   am
     5     2     3   ar
     6     4    17    1
     7     4     5   ar
     8    15    19    1
     9    20    21   ar
    10    21    25    1
    11    22    24   ar
    12    23    19   ar
    13     6     7    1
    14     6     1   ar
    15    10     1    1
    16    17    15   am
    17     8     9    2
    18     1     2   ar
    19     3     4   ar
    20    15    16    2
    21    19    20   ar
    22    21    22   ar
    23    23    24   ar
    24     5     6   ar
    25    10    11    1
    26    17    18    1
@<TRIPOS>MOLECULE
MolPort-045-928-263 952962461 CSSS00160205879 MCULE-4026858819 PubChem-131930738 ZINC000952962461
 25 26 0 0 0
SMALL
GASTEIGER

@<TRIPOS>ATOM
      1 C          10.4883   40.9562    9.1582 C.ar    1  UNL1        0.0611
      2 C          10.5934   40.5683   10.4976 C.ar    1  UNL1        0.0168
      3 C          11.8328   40.2244   11.0406 C.ar    1  UNL1        0.0160
      4 C          12.9836   40.2425   10.2413 C.ar    1  UNL1        0.0515
      5 C          12.8804   40.6150    8.8988 C.ar    1  UNL1        0.0273
      6 C          11.6434   40.9624    8.3465 C.ar    1  UNL1        0.0723
      7 CL         11.5789   41.3000    6.6234 Cl      1  UNL1       -0.0809
      8 C           8.6077   42.5929    8.7115 C.2     1  UNL1        0.2256
      9 O           9.1261   43.4934    9.4278 O.2     1  UNL1       -0.2748
     10 N           9.1930   41.2893    8.6461 N.am    1  UNL1       -0.2833
     11 H           8.6699   40.5724    8.2201 H       1  UNL1        0.1549
     12 C           6.8703   44.2802    8.2051 C.3     1  UNL1        0.0096
     13 C           7.3527   42.8652    7.9501 C.3     1  UNL1        0.0768
     14 C           7.5769   42.6563    6.4648 C.3     1  UNL1        0.0096
     15 C          14.6842   38.6572   11.2952 C.2     1  UNL1        0.2511
     16 O          15.4433   38.6293   12.3003 O.2     1  UNL1       -0.2698
     17 N          14.2739   39.9317   10.7808 N.am    1  UNL1       -0.2803
     18 H          14.9383   40.6579   10.8002 H       1  UNL1        0.1552
     19 C          14.2966   37.3870   10.6460 C.ar    1  UNL1        0.0750
     20 C          15.0894   36.8147    9.6431 C.ar    1  UNL1        0.0373
     21 C          14.7179   35.6021    9.0622 C.ar    1  UNL1        0.1594
     22 C          13.5574   34.9622    9.4992 C.ar    1  UNL1        0.1284
     23 C          13.1463   36.7027   11.0613 C.ar    1  UNL1        0.1035
     24 N          12.8025   35.5201   10.4832 N.ar    1  UNL1       -0.2398
     25 F          15.4778   35.0503    8.0865 F       1  UNL1       -0.2025
@<TRIPOS>BOND
     1    12    13    1
     2    13    14    1
     3    13     8    1
     4     8    10   am
     5     2     3   ar
     6     4    17    1
     7     4     5   ar
     8    15    19    1
     9    20    21   ar
    10    21    25    1
    11    22    24   ar
    12    23    19   ar
    13     6     7    1
    14     6     1   ar
    15    10     1    1
    16    17    15   am
    17     8     9    2
    18     1     2   ar
    19     3     4   ar
    20    15    16    2
    21    19    20   ar
    22    21    22   ar
    23    23    24   ar
    24     5     6   ar
    25    10    11    1
    26    17    18    1
@<TRIPOS>MOLECULE
MolPort-045-928-263 952962461 CSSS00160205879 MCULE-4026858819 PubChem-131930738 ZINC000952962461
 25 26 0 0 0
SMALL
GASTEIGER

@<TRIPOS>ATOM
      1 C          10.8132   41.0614    8.8672 C.ar    1  UNL1        0.0611
      2 C          10.8178   40.6777   10.2119 C.ar    1  UNL1        0.0168
      3 C          12.0054   40.2870   10.8333 C.ar    1  UNL1        0.0160
      4 C          13.2040   40.2536   10.1082 C.ar    1  UNL1        0.0515
      5 C          13.2009   40.6218    8.7606 C.ar    1  UNL1        0.0273
      6 C          12.0164   41.0158    8.1301 C.ar    1  UNL1        0.0723
      7 CL         12.0745   41.3452    6.4051 Cl      1  UNL1       -0.0809
      8 C           8.6521   40.5341    7.6561 C.2     1  UNL1        0.2256
      9 O           8.9974   39.3455    7.4097 O.2     1  UNL1       -0.2748
     10 N           9.5675   41.4438    8.2731 N.am    1  UNL1       -0.2833
     11 H           9.3246   42.3977    8.2906 H       1  UNL1        0.1549
     12 C           7.3922   42.2928    6.4554 C.3     1  UNL1        0.0096
     13 C           7.2932   41.0189    7.2723 C.3     1  UNL1        0.0768
     14 C           6.5536   39.9560    6.4830 C.3     1  UNL1        0.0096
     15 C          14.7292   38.6445   11.3735 C.2     1  UNL1        0.2511
     16 O          15.4464   38.6508   12.4092 O.2     1  UNL1       -0.2698
     17 N          14.4440   39.8940   10.7293 N.am    1  UNL1       -0.2803
     18 H          15.1648   40.5643   10.7123 H       1  UNL1        0.1552
     19 C          14.2621   37.3538   10.8249 C.ar    1  UNL1        0.0750
     20 C          13.0139   36.8258   11.1784 C.ar    1  UNL1        0.0373
     21 C          12.5821   35.6187   10.6285 C.ar    1  UNL1        0.1594
     22 C          13.4005   34.9519    9.7160 C.ar    1  UNL1        0.1284
     23 C          15.0448   36.6555    9.8956 C.ar    1  UNL1        0.1035
     24 N          14.6046   35.4807    9.3694 N.ar    1  UNL1       -0.2398
     25 F          11.3793   35.1013   10.9745 F       1  UNL1       -0.2025
@<TRIPOS>BOND
     1    12    13    1
     2    13    14    1
     3    13     8    1
     4     8    10   am
     5     2     3   ar
     6     4    17    1
     7     4     5   ar
     8    15    19    1
     9    20    21   ar
    10    21    25    1
    11    22    24   ar
    12    23    19   ar
    13     6     7    1
    14     6     1   ar
    15    10     1    1
    16    17    15   am
    17     8     9    2
    18     1     2   ar
    19     3     4   ar
    20    15    16    2
    21    19    20   ar
    22    21    22   ar
    23    23    24   ar
    24     5     6   ar
    25    10    11    1
    26    17    18    1
@<TRIPOS>MOLECULE
MolPort-045-928-263 952962461 CSSS00160205879 MCULE-4026858819 PubChem-131930738 ZINC000952962461
 25 26 0 0 0
SMALL
GASTEIGER

@<TRIPOS>ATOM
      1 C           8.7845   41.7928    9.2084 C.ar    1  UNL1        0.0611
      2 C           9.2136   40.5558    8.7173 C.ar    1  UNL1        0.0168
      3 C          10.5271   40.1292    8.9221 C.ar    1  UNL1        0.0160
      4 C          11.4374   40.9478    9.6038 C.ar    1  UNL1        0.0515
      5 C          11.0166   42.1908   10.0829 C.ar    1  UNL1        0.0273
      6 C           9.7026   42.6260    9.8836 C.ar    1  UNL1        0.0723
      7 CL          9.2868   44.2505   10.4087 Cl      1  UNL1       -0.0809
      8 C           6.3572   42.0234    9.8942 C.2     1  UNL1        0.2256
      9 O           6.5070   41.3108   10.9250 O.2     1  UNL1       -0.2748
     10 N           7.4304   42.1894    8.9631 N.am    1  UNL1       -0.2833
     11 H           7.2241   42.6046    8.0946 H       1  UNL1        0.1549
     12 C           5.1720   43.6637    8.4705 C.3     1  UNL1        0.0096
     13 C           5.0434   42.6741    9.6126 C.3     1  UNL1        0.0768
     14 C           3.9955   41.6308    9.2757 C.3     1  UNL1        0.0096
     15 C          13.8394   40.4503    8.8973 C.2     1  UNL1        0.2511
     16 O          14.6613   39.4985    8.9728 O.2     1  UNL1       -0.2698
     17 N          12.7801   40.5199    9.8619 N.am    1  UNL1       -0.2803
     18 H          12.9949   40.2495   10.7838 H       1  UNL1        0.1552
     19 C          14.0301   41.4904    7.8644 C.ar    1  UNL1        0.0750
     20 C          15.2120   42.2392    7.8001 C.ar    1  UNL1        0.0373
     21 C          15.3812   43.1978    6.8010 C.ar    1  UNL1        0.1594
     22 C          14.3672   43.3928    5.8623 C.ar    1  UNL1        0.1284
     23 C          13.0443   41.7120    6.8933 C.ar    1  UNL1        0.1035
     24 N          13.2296   42.6505    5.9259 N.ar    1  UNL1       -0.2398
     25 F          16.5193   43.9293    6.7411 F       1  UNL1       -0.2025
@<TRIPOS>BOND
     1    12    13    1
     2    13    14    1
     3    13     8    1
     4     8    10   am
     5     2     3   ar
     6     4    17    1
     7     4     5   ar
     8    15    19    1
     9    20    21   ar
    10    21    25    1
    11    22    24   ar
    12    23    19   ar
    13     6     7    1
    14     6     1   ar
    15    10     1    1
    16    17    15   am
    17     8     9    2
    18     1     2   ar
    19     3     4   ar
    20    15    16    2
    21    19    20   ar
    22    21    22   ar
    23    23    24   ar
    24     5     6   ar
    25    10    11    1
    26    17    18    1
@<TRIPOS>MOLECULE
MolPort-045-928-263 952962461 CSSS00160205879 MCULE-4026858819 PubChem-131930738 ZINC000952962461
 25 26 0 0 0
SMALL
GASTEIGER

@<TRIPOS>ATOM
      1 C          10.1567   40.5438    9.2801 C.ar    1  UNL1        0.0611
      2 C          11.1847   40.3060    8.3624 C.ar    1  UNL1        0.0168
      3 C          12.4964   40.1160    8.8012 C.ar    1  UNL1        0.0160
      4 C          12.8010   40.1842   10.1673 C.ar    1  UNL1        0.0515
      5 C          11.7792   40.4365   11.0861 C.ar    1  UNL1        0.0273
      6 C          10.4622   40.6267   10.6559 C.ar    1  UNL1        0.0723
      7 CL          9.2590   41.0599   11.8610 Cl      1  UNL1       -0.0809
      8 C           8.2812   42.0147    8.4232 C.2     1  UNL1        0.2256
      9 O           8.8789   43.0811    8.7367 O.2     1  UNL1       -0.2748
     10 N           8.8299   40.7424    8.7789 N.am    1  UNL1       -0.2833
     11 H           8.2564   39.9494    8.6719 H       1  UNL1        0.1549
     12 C           5.8809   41.4267    8.5441 C.3     1  UNL1        0.0096
     13 C           6.9719   42.0672    7.7078 C.3     1  UNL1        0.0768
     14 C           6.6000   43.5018    7.3858 C.3     1  UNL1        0.0096
     15 C          14.6094   38.7437   11.2493 C.2     1  UNL1        0.2511
     16 O          15.4289   38.8263   12.2025 O.2     1  UNL1       -0.2698
     17 N          14.1305   39.9555   10.6495 N.am    1  UNL1       -0.2803
     18 H          14.7729   40.6962   10.5612 H       1  UNL1        0.1552
     19 C          14.2208   37.4103   10.7429 C.ar    1  UNL1        0.0750
     20 C          12.9907   36.8354   11.0864 C.ar    1  UNL1        0.0373
     21 C          12.6333   35.5873   10.5763 C.ar    1  UNL1        0.1594
     22 C          13.5078   34.9260    9.7130 C.ar    1  UNL1        0.1284
     23 C          15.0616   36.7152    9.8633 C.ar    1  UNL1        0.1035
     24 N          14.6936   35.4998    9.3753 N.ar    1  UNL1       -0.2398
     25 F          11.4482   35.0249   10.9131 F       1  UNL1       -0.2025
@<TRIPOS>BOND
     1    12    13    1
     2    13    14    1
     3    13     8    1
     4     8    10   am
     5     2     3   ar
     6     4    17    1
     7     4     5   ar
     8    15    19    1
     9    20    21   ar
    10    21    25    1
    11    22    24   ar
    12    23    19   ar
    13     6     7    1
    14     6     1   ar
    15    10     1    1
    16    17    15   am
    17     8     9    2
    18     1     2   ar
    19     3     4   ar
    20    15    16    2
    21    19    20   ar
    22    21    22   ar
    23    23    24   ar
    24     5     6   ar
    25    10    11    1
    26    17    18    1
@<TRIPOS>MOLECULE
MolPort-045-928-263 952962461 CSSS00160205879 MCULE-4026858819 PubChem-131930738 ZINC000952962461
 25 26 0 0 0
SMALL
GASTEIGER

@<TRIPOS>ATOM
      1 C           9.4685   40.7847    8.7877 C.ar    1  UNL1        0.0611
      2 C          10.0984   41.8355    9.4619 C.ar    1  UNL1        0.0168
      3 C          11.4485   41.7481    9.8065 C.ar    1  UNL1        0.0160
      4 C          12.1824   40.5944    9.4996 C.ar    1  UNL1        0.0515
      5 C          11.5528   39.5363    8.8395 C.ar    1  UNL1        0.0273
      6 C          10.2012   39.6155    8.4892 C.ar    1  UNL1        0.0723
      7 CL          9.4542   38.1961    7.7718 Cl      1  UNL1       -0.0809
      8 C           7.0805   41.3930    9.3732 C.2     1  UNL1        0.2256
      9 O           7.3400   41.5240   10.6013 O.2     1  UNL1       -0.2748
     10 N           8.0794   40.9187    8.4658 N.am    1  UNL1       -0.2833
     11 H           7.7925   40.6672    7.5583 H       1  UNL1        0.1549
     12 C           4.6595   40.9877    9.6845 C.3     1  UNL1        0.0096
     13 C           5.7134   41.6964    8.8555 C.3     1  UNL1        0.0768
     14 C           5.4605   43.1916    8.8684 C.3     1  UNL1        0.0096
     15 C          14.6573   40.6734    8.8793 C.2     1  UNL1        0.2511
     16 O          15.6759   39.9402    8.9897 O.2     1  UNL1       -0.2698
     17 N          13.5781   40.4922    9.8066 N.am    1  UNL1       -0.2803
     18 H          13.8178   40.2785   10.7372 H       1  UNL1        0.1552
     19 C          14.6355   41.7304    7.8461 C.ar    1  UNL1        0.0750
     20 C          15.6923   42.6408    7.7189 C.ar    1  UNL1        0.0373
     21 C          15.6628   43.6140    6.7201 C.ar    1  UNL1        0.1594
     22 C          14.5773   43.6620    5.8445 C.ar    1  UNL1        0.1284
     23 C          13.5720   41.8088    6.9369 C.ar    1  UNL1        0.1035
     24 N          13.5632   42.7644    5.9685 N.ar    1  UNL1       -0.2398
     25 F          16.6791   44.5010    6.5996 F       1  UNL1       -0.2025
@<TRIPOS>BOND
     1    12    13    1
     2    13    14    1
     3    13     8    1
     4     8    10   am
     5     2     3   ar
     6     4    17    1
     7     4     5   ar
     8    15    19    1
     9    20    21   ar
    10    21    25    1
    11    22    24   ar
    12    23    19   ar
    13     6     7    1
    14     6     1   ar
    15    10     1    1
    16    17    15   am
    17     8     9    2
    18     1     2   ar
    19     3     4   ar
    20    15    16    2
    21    19    20   ar
    22    21    22   ar
    23    23    24   ar
    24     5     6   ar
    25    10    11    1
    26    17    18    1
