@<TRIPOS>MOLECULE
MolPort-003-076-372 4325488 CHEMBL1574704 CSSS03437161374 MCULE-5013813756 PubChem-7189636 ZINC000004325488
 27 29 0 0 0
SMALL
GASTEIGER

@<TRIPOS>ATOM
      1 C          10.8451   41.6829    6.9565 C.2     1  UNL1        0.2293
      2 N          11.8966   42.1038    6.0798 N.am    1  UNL1       -0.2641
      3 O          11.0349   41.5644    8.1955 O.2     1  UNL1       -0.2747
      4 H          11.6886   42.1309    5.1179 H       1  UNL1        0.1567
      5 C          13.2214   42.4893    6.4653 C.ar    1  UNL1        0.1656
      6 C          15.4099   43.4871    6.8317 C.ar    1  UNL1        0.0527
      7 C          15.1828   42.3062    7.5232 C.ar    1  UNL1        0.1230
      8 C          16.1707   41.7724    8.3566 C.ar    1  UNL1        0.1566
      9 C          17.3943   42.4657    8.4683 C.ar    1  UNL1        0.0385
     10 C          17.6095   43.6630    7.7598 C.ar    1  UNL1        0.0037
     11 C          16.6087   44.1872    6.9284 C.ar    1  UNL1        0.0083
     12 N          13.9626   41.7450    7.3205 N.ar    1  UNL1       -0.2209
     13 S          14.0521   43.8682    5.9245 S.2     1  UNL1       -0.0513
     14 O          15.9308   40.5781    9.0472 O.3     1  UNL1       -0.4739
     15 C          14.6626   39.9325    9.0693 C.3     1  UNL1        0.2056
     16 C          14.1325   39.8696   10.4894 C.3     1  UNL1        0.0512
     17 C           9.4978   41.3825    6.3945 C.3     1  UNL1        0.1111
     18 C           8.4433   41.3269    7.4916 C.3     1  UNL1        0.1655
     19 O           7.3237   43.4062    6.2099 O.2     1  UNL1       -0.1686
     20 O           8.2846   43.8526    8.4099 O.2     1  UNL1       -0.1686
     21 S           7.5176   42.8507    7.5926 S.O2    1  UNL1        0.0092
     22 C           5.9489   42.5626    8.3261 C.ar    1  UNL1        0.1057
     23 C           5.0458   43.6202    8.4820 C.ar    1  UNL1        0.0183
     24 C           3.7907   43.3921    9.0541 C.ar    1  UNL1        0.0013
     25 C           3.4350   42.1052    9.4691 C.ar    1  UNL1        0.0001
     26 C           4.3343   41.0462    9.3115 C.ar    1  UNL1        0.0013
     27 C           5.5895   41.2746    8.7397 C.ar    1  UNL1        0.0183
@<TRIPOS>BOND
     1     5     2    1
     2     5    13   ar
     3    17     1    1
     4    17    18    1
     5    18    21    1
     6    23    24   ar
     7    25    26   ar
     8    27    22   ar
     9     6    13   ar
    10     7     8   ar
    11     7    12   ar
    12     8    14    1
    13     9    10   ar
    14    11     6   ar
    15    15    14    1
    16    15    16    1
    17     2     1   am
    18    21    22    1
    19     5    12   ar
    20     1     3    2
    21    22    23   ar
    22    24    25   ar
    23    26    27   ar
    24     6     7   ar
    25     8     9   ar
    26    10    11   ar
    27    21    19    2
    28    21    20    2
    29     2     4    1
@<TRIPOS>MOLECULE
MolPort-003-076-372 4325488 CHEMBL1574704 CSSS03437161374 MCULE-5013813756 PubChem-7189636 ZINC000004325488
 27 29 0 0 0
SMALL
GASTEIGER

@<TRIPOS>ATOM
      1 C          11.3050   41.1059    5.8065 C.2     1  UNL1        0.2293
      2 N          11.9534   42.3831    5.8135 N.am    1  UNL1       -0.2641
      3 O          11.8944   40.0710    6.2149 O.2     1  UNL1       -0.2747
      4 H          11.4478   43.1398    5.4380 H       1  UNL1        0.1567
      5 C          13.2655   42.6673    6.3133 C.ar    1  UNL1        0.1656
      6 C          15.4815   43.4998    6.8754 C.ar    1  UNL1        0.0527
      7 C          15.1136   42.3314    7.5265 C.ar    1  UNL1        0.1230
      8 C          15.9877   41.7187    8.4297 C.ar    1  UNL1        0.1566
      9 C          17.2441   42.3201    8.6533 C.ar    1  UNL1        0.0385
     10 C          17.6028   43.5059    7.9847 C.ar    1  UNL1        0.0037
     11 C          16.7150   44.1099    7.0821 C.ar    1  UNL1        0.0083
     12 N          13.8775   41.8624    7.2146 N.ar    1  UNL1       -0.2209
     13 S          14.2349   43.9878    5.8655 S.2     1  UNL1       -0.0513
     14 O          15.6062   40.5379    9.0786 O.3     1  UNL1       -0.4739
     15 C          14.2577   40.0879    9.1474 C.3     1  UNL1        0.2056
     16 C          13.8566   39.8569   10.5922 C.3     1  UNL1        0.0512
     17 C           9.9037   40.9975    5.3105 C.3     1  UNL1        0.1111
     18 C           8.9789   40.4479    6.3881 C.3     1  UNL1        0.1655
     19 O           6.6548   41.1217    7.5563 O.2     1  UNL1       -0.1686
     20 O           7.6389   42.7555    6.0315 O.2     1  UNL1       -0.1686
     21 S           7.9465   41.7277    7.0847 S.O2    1  UNL1        0.0092
     22 C           8.7567   42.4924    8.4414 C.ar    1  UNL1        0.1057
     23 C           9.8922   41.8973    9.0026 C.ar    1  UNL1        0.0183
     24 C          10.5475   42.5099   10.0750 C.ar    1  UNL1        0.0013
     25 C          10.0702   43.7203   10.5867 C.ar    1  UNL1        0.0001
     26 C           8.9377   44.3185   10.0258 C.ar    1  UNL1        0.0013
     27 C           8.2823   43.7056    8.9537 C.ar    1  UNL1        0.0183
@<TRIPOS>BOND
     1     5     2    1
     2     5    13   ar
     3    17     1    1
     4    17    18    1
     5    18    21    1
     6    23    24   ar
     7    25    26   ar
     8    27    22   ar
     9     6    13   ar
    10     7     8   ar
    11     7    12   ar
    12     8    14    1
    13     9    10   ar
    14    11     6   ar
    15    15    14    1
    16    15    16    1
    17     2     1   am
    18    21    22    1
    19     5    12   ar
    20     1     3    2
    21    22    23   ar
    22    24    25   ar
    23    26    27   ar
    24     6     7   ar
    25     8     9   ar
    26    10    11   ar
    27    21    19    2
    28    21    20    2
    29     2     4    1
@<TRIPOS>MOLECULE
MolPort-003-076-372 4325488 CHEMBL1574704 CSSS03437161374 MCULE-5013813756 PubChem-7189636 ZINC000004325488
 27 29 0 0 0
SMALL
GASTEIGER

@<TRIPOS>ATOM
      1 C          11.4970   41.0616    5.8782 C.2     1  UNL1        0.2293
      2 N          12.1450   42.3343    5.7688 N.am    1  UNL1       -0.2641
      3 O          12.0785   40.0745    6.4006 O.2     1  UNL1       -0.2747
      4 H          11.6468   43.0481    5.3088 H       1  UNL1        0.1567
      5 C          13.4469   42.6704    6.2630 C.ar    1  UNL1        0.1656
      6 C          15.6312   43.5892    6.8144 C.ar    1  UNL1        0.0527
      7 C          15.3104   42.4101    7.4710 C.ar    1  UNL1        0.1230
      8 C          16.2103   41.8347    8.3735 C.ar    1  UNL1        0.1566
      9 C          17.4436   42.4847    8.5906 C.ar    1  UNL1        0.0385
     10 C          17.7544   43.6807    7.9164 C.ar    1  UNL1        0.0037
     11 C          16.8411   44.2469    7.0147 C.ar    1  UNL1        0.0083
     12 N          14.0922   41.8929    7.1651 N.ar    1  UNL1       -0.2209
     13 S          14.3635   44.0254    5.8071 S.2     1  UNL1       -0.0513
     14 O          15.8764   40.6427    9.0280 O.3     1  UNL1       -0.4739
     15 C          16.7224   40.0173    9.9865 C.3     1  UNL1        0.2056
     16 C          16.2685   38.5908   10.2328 C.3     1  UNL1        0.0512
     17 C          10.1059   40.9006    5.3681 C.3     1  UNL1        0.1111
     18 C           9.1048   41.6196    6.2622 C.3     1  UNL1        0.1655
     19 O           8.5782   39.1164    7.0848 O.2     1  UNL1       -0.1686
     20 O           7.0267   40.8622    7.7971 O.2     1  UNL1       -0.1686
     21 S           8.4735   40.5444    7.5408 S.O2    1  UNL1        0.0092
     22 C           9.3972   40.7493    9.0195 C.ar    1  UNL1        0.1057
     23 C           9.0627   41.7702    9.9163 C.ar    1  UNL1        0.0183
     24 C           9.7881   41.9284   11.1010 C.ar    1  UNL1        0.0013
     25 C          10.8478   41.0643   11.3926 C.ar    1  UNL1        0.0001
     26 C          11.1820   40.0416   10.4997 C.ar    1  UNL1        0.0013
     27 C          10.4568   39.8837    9.3149 C.ar    1  UNL1        0.0183
@<TRIPOS>BOND
     1     5     2    1
     2     5    13   ar
     3    17     1    1
     4    17    18    1
     5    18    21    1
     6    23    24   ar
     7    25    26   ar
     8    27    22   ar
     9     6    13   ar
    10     7     8   ar
    11     7    12   ar
    12     8    14    1
    13     9    10   ar
    14    11     6   ar
    15    15    14    1
    16    15    16    1
    17     2     1   am
    18    21    22    1
    19     5    12   ar
    20     1     3    2
    21    22    23   ar
    22    24    25   ar
    23    26    27   ar
    24     6     7   ar
    25     8     9   ar
    26    10    11   ar
    27    21    19    2
    28    21    20    2
    29     2     4    1
@<TRIPOS>MOLECULE
MolPort-003-076-372 4325488 CHEMBL1574704 CSSS03437161374 MCULE-5013813756 PubChem-7189636 ZINC000004325488
 27 29 0 0 0
SMALL
GASTEIGER

@<TRIPOS>ATOM
      1 C          11.3622   41.0570    6.0386 C.2     1  UNL1        0.2293
      2 N          12.1271   42.2252    5.7195 N.am    1  UNL1       -0.2641
      3 O          11.8056   40.1799    6.8257 O.2     1  UNL1       -0.2747
      4 H          11.7366   42.8457    5.0625 H       1  UNL1        0.1567
      5 C          13.4045   42.5793    6.2627 C.ar    1  UNL1        0.1656
      6 C          15.5478   43.5349    6.9052 C.ar    1  UNL1        0.0527
      7 C          15.2355   42.3323    7.5222 C.ar    1  UNL1        0.1230
      8 C          16.1208   41.7555    8.4382 C.ar    1  UNL1        0.1566
      9 C          17.3306   42.4286    8.7101 C.ar    1  UNL1        0.0385
     10 C          17.6329   43.6483    8.0755 C.ar    1  UNL1        0.0037
     11 C          16.7346   44.2155    7.1597 C.ar    1  UNL1        0.0083
     12 N          14.0403   41.7945    7.1654 N.ar    1  UNL1       -0.2209
     13 S          14.3016   43.9665    5.8694 S.2     1  UNL1       -0.0513
     14 O          15.7958   40.5398    9.0524 O.3     1  UNL1       -0.4739
     15 C          16.6360   39.9005   10.0067 C.3     1  UNL1        0.2056
     16 C          15.8069   39.0346   10.9365 C.3     1  UNL1        0.0512
     17 C          10.0131   40.8753    5.4318 C.3     1  UNL1        0.1111
     18 C           9.0618   40.1857    6.4004 C.3     1  UNL1        0.1655
     19 O           6.5679   40.3658    7.3841 O.2     1  UNL1       -0.1686
     20 O           7.1299   41.8421    5.5220 O.2     1  UNL1       -0.1686
     21 S           7.6532   41.2142    6.7838 S.O2    1  UNL1        0.0092
     22 C           8.1072   42.4674    7.9262 C.ar    1  UNL1        0.1057
     23 C           7.3753   43.6588    7.9838 C.ar    1  UNL1        0.0183
     24 C           7.7262   44.6537    8.9011 C.ar    1  UNL1        0.0013
     25 C           8.8082   44.4583    9.7647 C.ar    1  UNL1        0.0001
     26 C           9.5392   43.2675    9.7114 C.ar    1  UNL1        0.0013
     27 C           9.1884   42.2728    8.7938 C.ar    1  UNL1        0.0183
@<TRIPOS>BOND
     1     5     2    1
     2     5    13   ar
     3    17     1    1
     4    17    18    1
     5    18    21    1
     6    23    24   ar
     7    25    26   ar
     8    27    22   ar
     9     6    13   ar
    10     7     8   ar
    11     7    12   ar
    12     8    14    1
    13     9    10   ar
    14    11     6   ar
    15    15    14    1
    16    15    16    1
    17     2     1   am
    18    21    22    1
    19     5    12   ar
    20     1     3    2
    21    22    23   ar
    22    24    25   ar
    23    26    27   ar
    24     6     7   ar
    25     8     9   ar
    26    10    11   ar
    27    21    19    2
    28    21    20    2
    29     2     4    1
@<TRIPOS>MOLECULE
MolPort-003-076-372 4325488 CHEMBL1574704 CSSS03437161374 MCULE-5013813756 PubChem-7189636 ZINC000004325488
 27 29 0 0 0
SMALL
GASTEIGER

@<TRIPOS>ATOM
      1 C          10.9561   41.6790    6.4172 C.2     1  UNL1        0.2293
      2 N          12.1040   42.1407    5.6955 N.am    1  UNL1       -0.2641
      3 O          10.9902   41.5165    7.6652 O.2     1  UNL1       -0.2747
      4 H          12.0181   42.2015    4.7166 H       1  UNL1        0.1567
      5 C          13.3647   42.5227    6.2583 C.ar    1  UNL1        0.1656
      6 C          15.4694   43.5325    6.9442 C.ar    1  UNL1        0.0527
      7 C          15.1946   42.3028    7.5244 C.ar    1  UNL1        0.1230
      8 C          16.0930   41.7308    8.4305 C.ar    1  UNL1        0.1566
      9 C          17.2770   42.4369    8.7307 C.ar    1  UNL1        0.0385
     10 C          17.5414   43.6840    8.1334 C.ar    1  UNL1        0.0037
     11 C          16.6302   44.2459    7.2270 C.ar    1  UNL1        0.0083
     12 N          14.0211   41.7348    7.1433 N.ar    1  UNL1       -0.2209
     13 S          14.2161   43.9505    5.9114 S.2     1  UNL1       -0.0513
     14 O          15.8061   40.4876    9.0075 O.3     1  UNL1       -0.4739
     15 C          14.4833   39.9827    9.1517 C.3     1  UNL1        0.2056
     16 C          14.1726   39.7411   10.6169 C.3     1  UNL1        0.0512
     17 C           9.6941   41.3884    5.6795 C.3     1  UNL1        0.1111
     18 C           8.9618   40.1999    6.2878 C.3     1  UNL1        0.1655
     19 O           6.4599   39.2505    6.0445 O.2     1  UNL1       -0.1686
     20 O           6.8142   41.5935    5.4552 O.2     1  UNL1       -0.1686
     21 S           7.2061   40.5020    6.4118 S.O2    1  UNL1        0.0092
     22 C           6.7829   40.9687    8.0504 C.ar    1  UNL1        0.1057
     23 C           5.4450   40.9446    8.4601 C.ar    1  UNL1        0.0183
     24 C           5.1056   41.3034    9.7681 C.ar    1  UNL1        0.0013
     25 C           6.1037   41.6844   10.6699 C.ar    1  UNL1        0.0001
     26 C           7.4415   41.7063   10.2639 C.ar    1  UNL1        0.0013
     27 C           7.7808   41.3478    8.9559 C.ar    1  UNL1        0.0183
@<TRIPOS>BOND
     1     5     2    1
     2     5    13   ar
     3    17     1    1
     4    17    18    1
     5    18    21    1
     6    23    24   ar
     7    25    26   ar
     8    27    22   ar
     9     6    13   ar
    10     7     8   ar
    11     7    12   ar
    12     8    14    1
    13     9    10   ar
    14    11     6   ar
    15    15    14    1
    16    15    16    1
    17     2     1   am
    18    21    22    1
    19     5    12   ar
    20     1     3    2
    21    22    23   ar
    22    24    25   ar
    23    26    27   ar
    24     6     7   ar
    25     8     9   ar
    26    10    11   ar
    27    21    19    2
    28    21    20    2
    29     2     4    1
@<TRIPOS>MOLECULE
MolPort-003-076-372 4325488 CHEMBL1574704 CSSS03437161374 MCULE-5013813756 PubChem-7189636 ZINC000004325488
 27 29 0 0 0
SMALL
GASTEIGER

@<TRIPOS>ATOM
      1 C          11.0069   42.1200    7.7238 C.2     1  UNL1        0.2293
      2 N          12.0271   42.0047    6.7251 N.am    1  UNL1       -0.2641
      3 O          11.2525   42.6143    8.8555 O.2     1  UNL1       -0.2747
      4 H          11.7739   41.5674    5.8802 H       1  UNL1        0.1567
      5 C          13.3799   42.4632    6.8352 C.ar    1  UNL1        0.1656
      6 C          15.5578   43.5396    6.7031 C.ar    1  UNL1        0.0527
      7 C          15.4890   42.4651    7.5778 C.ar    1  UNL1        0.1230
      8 C          16.6159   42.0715    8.3061 C.ar    1  UNL1        0.1566
      9 C          17.8137   42.7942    8.1226 C.ar    1  UNL1        0.0385
     10 C          17.8674   43.8824    7.2311 C.ar    1  UNL1        0.0037
     11 C          16.7284   44.2664    6.5081 C.ar    1  UNL1        0.0083
     12 N          14.2751   41.8603    7.6536 N.ar    1  UNL1       -0.2209
     13 S          14.0601   43.7653    5.9833 S.2     1  UNL1       -0.0513
     14 O          16.5349   40.9834    9.1837 O.3     1  UNL1       -0.4739
     15 C          17.6689   40.2272    9.5932 C.3     1  UNL1        0.2056
     16 C          17.3024   39.3223   10.7545 C.3     1  UNL1        0.0512
     17 C           9.6257   41.6502    7.4190 C.3     1  UNL1        0.1111
     18 C           9.2496   40.4508    8.2783 C.3     1  UNL1        0.1655
     19 O          10.7368   39.2286    6.4036 O.2     1  UNL1       -0.1686
     20 O           9.0293   37.8796    7.5114 O.2     1  UNL1       -0.1686
     21 S          10.0550   38.9596    7.7154 S.O2    1  UNL1        0.0092
     22 C          11.2477   38.4311    8.8902 C.ar    1  UNL1        0.1057
     23 C          12.3525   39.2409    9.1768 C.ar    1  UNL1        0.0183
     24 C          13.2976   38.8292   10.1211 C.ar    1  UNL1        0.0013
     25 C          13.1385   37.6079   10.7828 C.ar    1  UNL1        0.0001
     26 C          12.0340   36.7984   10.5006 C.ar    1  UNL1        0.0013
     27 C          11.0891   37.2101    9.5560 C.ar    1  UNL1        0.0183
@<TRIPOS>BOND
     1     5     2    1
     2     5    13   ar
     3    17     1    1
     4    17    18    1
     5    18    21    1
     6    23    24   ar
     7    25    26   ar
     8    27    22   ar
     9     6    13   ar
    10     7     8   ar
    11     7    12   ar
    12     8    14    1
    13     9    10   ar
    14    11     6   ar
    15    15    14    1
    16    15    16    1
    17     2     1   am
    18    21    22    1
    19     5    12   ar
    20     1     3    2
    21    22    23   ar
    22    24    25   ar
    23    26    27   ar
    24     6     7   ar
    25     8     9   ar
    26    10    11   ar
    27    21    19    2
    28    21    20    2
    29     2     4    1
@<TRIPOS>MOLECULE
MolPort-003-076-372 4325488 CHEMBL1574704 CSSS03437161374 MCULE-5013813756 PubChem-7189636 ZINC000004325488
 27 29 0 0 0
SMALL
GASTEIGER

@<TRIPOS>ATOM
      1 C          11.3388   41.4874    6.4873 C.2     1  UNL1        0.2293
      2 N          10.5880   42.2811    7.4135 N.am    1  UNL1       -0.2641
      3 O          10.9016   40.3838    6.0673 O.2     1  UNL1       -0.2747
      4 H          11.0117   43.1103    7.7330 H       1  UNL1        0.1567
      5 C           9.2810   41.9866    7.9207 C.ar    1  UNL1        0.1656
      6 C           6.9520   41.4269    8.3471 C.ar    1  UNL1        0.0527
      7 C           7.6900   41.7557    9.4748 C.ar    1  UNL1        0.1230
      8 C           7.0923   41.7495   10.7389 C.ar    1  UNL1        0.1566
      9 C           5.7275   41.4035   10.8290 C.ar    1  UNL1        0.0385
     10 C           4.9921   41.0723    9.6751 C.ar    1  UNL1        0.0037
     11 C           5.6055   41.0818    8.4137 C.ar    1  UNL1        0.0083
     12 N           8.9906   42.0702    9.2411 N.ar    1  UNL1       -0.2209
     13 S           7.9360   41.5244    6.9928 S.2     1  UNL1       -0.0513
     14 O           7.8468   42.0861   11.8695 O.3     1  UNL1       -0.4739
     15 C           8.5613   41.1282   12.6424 C.3     1  UNL1        0.2056
     16 C          10.0425   41.1971   12.3215 C.3     1  UNL1        0.0512
     17 C          12.6619   41.9766    6.0063 C.3     1  UNL1        0.1111
     18 C          12.9062   43.4167    6.4366 C.3     1  UNL1        0.1655
     19 O          14.3905   45.5466    5.7434 O.2     1  UNL1       -0.1686
     20 O          14.6497   43.5317    4.3885 O.2     1  UNL1       -0.1686
     21 S          14.4461   44.0456    5.7866 S.O2    1  UNL1        0.0092
     22 C          15.7861   43.5447    6.8041 C.ar    1  UNL1        0.1057
     23 C          16.9760   44.2814    6.8049 C.ar    1  UNL1        0.0183
     24 C          18.0407   43.8929    7.6235 C.ar    1  UNL1        0.0013
     25 C          17.9169   42.7683    8.4449 C.ar    1  UNL1        0.0001
     26 C          16.7280   42.0324    8.4482 C.ar    1  UNL1        0.0013
     27 C          15.6635   42.4208    7.6294 C.ar    1  UNL1        0.0183
@<TRIPOS>BOND
     1     5     2    1
     2     5    13   ar
     3    17     1    1
     4    17    18    1
     5    18    21    1
     6    23    24   ar
     7    25    26   ar
     8    27    22   ar
     9     6    13   ar
    10     7     8   ar
    11     7    12   ar
    12     8    14    1
    13     9    10   ar
    14    11     6   ar
    15    15    14    1
    16    15    16    1
    17     2     1   am
    18    21    22    1
    19     5    12   ar
    20     1     3    2
    21    22    23   ar
    22    24    25   ar
    23    26    27   ar
    24     6     7   ar
    25     8     9   ar
    26    10    11   ar
    27    21    19    2
    28    21    20    2
    29     2     4    1
@<TRIPOS>MOLECULE
MolPort-003-076-372 4325488 CHEMBL1574704 CSSS03437161374 MCULE-5013813756 PubChem-7189636 ZINC000004325488
 27 29 0 0 0
SMALL
GASTEIGER

@<TRIPOS>ATOM
      1 C          11.9684   41.5377    7.2400 C.2     1  UNL1        0.2293
      2 N          11.4734   42.3481    8.3122 N.am    1  UNL1       -0.2641
      3 O          11.3698   40.4893    6.8824 O.2     1  UNL1       -0.2747
      4 H          12.0171   43.1284    8.5665 H       1  UNL1        0.1567
      5 C          10.2646   42.1345    9.0509 C.ar    1  UNL1        0.1656
      6 C           8.4889   41.6894   10.6534 C.ar    1  UNL1        0.0527
      7 C           8.0580   41.9490    9.3606 C.ar    1  UNL1        0.1230
      8 C           6.6935   41.9441    9.0546 C.ar    1  UNL1        0.1566
      9 C           5.7788   41.6673   10.0925 C.ar    1  UNL1        0.0385
     10 C           6.2320   41.4057   11.3993 C.ar    1  UNL1        0.0037
     11 C           7.6039   41.4151   11.6917 C.ar    1  UNL1        0.0083
     12 N           9.0462   42.1967    8.4623 N.ar    1  UNL1       -0.2209
     13 S          10.1633   41.7655   10.7054 S.2     1  UNL1       -0.0513
     14 O           6.2709   42.2047    7.7453 O.3     1  UNL1       -0.4739
     15 C           6.2836   43.5051    7.1671 C.3     1  UNL1        0.2056
     16 C           5.7951   44.5297    8.1737 C.3     1  UNL1        0.0512
     17 C          13.2141   41.9430    6.5290 C.3     1  UNL1        0.1111
     18 C          13.0533   43.3061    5.8697 C.3     1  UNL1        0.1655
     19 O          14.4623   45.5896    5.7269 O.2     1  UNL1       -0.1686
     20 O          15.1331   43.7824    4.2281 O.2     1  UNL1       -0.1686
     21 S          14.6310   44.1011    5.6087 S.O2    1  UNL1        0.0092
     22 C          15.7938   43.5534    6.8044 C.ar    1  UNL1        0.1057
     23 C          15.5511   42.3811    7.5292 C.ar    1  UNL1        0.0183
     24 C          16.4810   41.9350    8.4731 C.ar    1  UNL1        0.0013
     25 C          17.6568   42.6589    8.6924 C.ar    1  UNL1        0.0001
     26 C          17.9031   43.8288    7.9673 C.ar    1  UNL1        0.0013
     27 C          16.9731   44.2750    7.0237 C.ar    1  UNL1        0.0183
@<TRIPOS>BOND
     1     5     2    1
     2     5    13   ar
     3    17     1    1
     4    17    18    1
     5    18    21    1
     6    23    24   ar
     7    25    26   ar
     8    27    22   ar
     9     6    13   ar
    10     7     8   ar
    11     7    12   ar
    12     8    14    1
    13     9    10   ar
    14    11     6   ar
    15    15    14    1
    16    15    16    1
    17     2     1   am
    18    21    22    1
    19     5    12   ar
    20     1     3    2
    21    22    23   ar
    22    24    25   ar
    23    26    27   ar
    24     6     7   ar
    25     8     9   ar
    26    10    11   ar
    27    21    19    2
    28    21    20    2
    29     2     4    1
@<TRIPOS>MOLECULE
MolPort-003-076-372 4325488 CHEMBL1574704 CSSS03437161374 MCULE-5013813756 PubChem-7189636 ZINC000004325488
 27 29 0 0 0
SMALL
GASTEIGER

@<TRIPOS>ATOM
      1 C          11.5448   40.8247    7.5508 C.2     1  UNL1        0.2293
      2 N          12.0419   42.1677    7.5221 N.am    1  UNL1       -0.2641
      3 O          12.2800   39.8486    7.2475 O.2     1  UNL1       -0.2747
      4 H          11.3984   42.8838    7.7279 H       1  UNL1        0.1567
      5 C          13.3836   42.5711    7.2233 C.ar    1  UNL1        0.1656
      6 C          15.4820   43.4260    6.3371 C.ar    1  UNL1        0.0527
      7 C          15.5912   42.7384    7.5369 C.ar    1  UNL1        0.1230
      8 C          16.8375   42.5778    8.1502 C.ar    1  UNL1        0.1566
      9 C          17.9693   43.1304    7.5143 C.ar    1  UNL1        0.0385
     10 C          17.8419   43.8253    6.2967 C.ar    1  UNL1        0.0037
     11 C          16.5849   43.9795    5.6938 C.ar    1  UNL1        0.0083
     12 N          14.4221   42.2582    8.0347 N.ar    1  UNL1       -0.2209
     13 S          13.8757   43.4504    5.8563 S.2     1  UNL1       -0.0513
     14 O          16.9355   41.8792    9.3599 O.3     1  UNL1       -0.4739
     15 C          17.3182   40.5107    9.4401 C.3     1  UNL1        0.2056
     16 C          16.1817   39.6824   10.0093 C.3     1  UNL1        0.0512
     17 C          10.1311   40.5743    7.9512 C.3     1  UNL1        0.1111
     18 C          10.0192   40.3220    9.4487 C.3     1  UNL1        0.1655
     19 O          10.7294   42.7826   10.2617 O.2     1  UNL1       -0.1686
     20 O           9.3304   41.4787   11.7800 O.2     1  UNL1       -0.1686
     21 S           9.5863   41.8100   10.3362 S.O2    1  UNL1        0.0092
     22 C           8.1550   42.5437    9.6328 C.ar    1  UNL1        0.1057
     23 C           6.9576   41.8218    9.5729 C.ar    1  UNL1        0.0183
     24 C           5.8124   42.4074    9.0250 C.ar    1  UNL1        0.0013
     25 C           5.8614   43.7172    8.5383 C.ar    1  UNL1        0.0001
     26 C           7.0557   44.4416    8.5999 C.ar    1  UNL1        0.0013
     27 C           8.2010   43.8558    9.1474 C.ar    1  UNL1        0.0183
@<TRIPOS>BOND
     1     5     2    1
     2     5    13   ar
     3    17     1    1
     4    17    18    1
     5    18    21    1
     6    23    24   ar
     7    25    26   ar
     8    27    22   ar
     9     6    13   ar
    10     7     8   ar
    11     7    12   ar
    12     8    14    1
    13     9    10   ar
    14    11     6   ar
    15    15    14    1
    16    15    16    1
    17     2     1   am
    18    21    22    1
    19     5    12   ar
    20     1     3    2
    21    22    23   ar
    22    24    25   ar
    23    26    27   ar
    24     6     7   ar
    25     8     9   ar
    26    10    11   ar
    27    21    19    2
    28    21    20    2
    29     2     4    1
@<TRIPOS>MOLECULE
MolPort-003-076-372 4325488 CHEMBL1574704 CSSS03437161374 MCULE-5013813756 PubChem-7189636 ZINC000004325488
 27 29 0 0 0
SMALL
GASTEIGER

@<TRIPOS>ATOM
      1 C          11.1808   40.6407    5.7184 C.2     1  UNL1        0.2293
      2 N          11.9470   41.6830    6.3334 N.am    1  UNL1       -0.2641
      3 O          11.5573   39.4400    5.7614 O.2     1  UNL1       -0.2747
      4 H          11.6153   42.6032    6.2213 H       1  UNL1        0.1567
      5 C          13.1486   41.5179    7.0957 C.ar    1  UNL1        0.1656
      6 C          14.9518   40.9273    8.6186 C.ar    1  UNL1        0.0527
      7 C          15.2508   41.9462    7.7259 C.ar    1  UNL1        0.1230
      8 C          16.5099   42.5543    7.7412 C.ar    1  UNL1        0.1566
      9 C          17.4560   42.1039    8.6860 C.ar    1  UNL1        0.0385
     10 C          17.1372   41.0689    9.5854 C.ar    1  UNL1        0.0037
     11 C          15.8702   40.4675    9.5575 C.ar    1  UNL1        0.0083
     12 N          14.2464   42.2800    6.8746 N.ar    1  UNL1       -0.2209
     13 S          13.3799   40.4050    8.3575 S.2     1  UNL1       -0.0513
     14 O          16.7989   43.5838    6.8371 O.3     1  UNL1       -0.4739
     15 C          15.9638   43.9056    5.7304 C.3     1  UNL1        0.2056
     16 C          15.3431   45.2762    5.9249 C.3     1  UNL1        0.0512
     17 C           9.9107   40.9806    5.0166 C.3     1  UNL1        0.1111
     18 C           8.9769   39.7793    4.9551 C.3     1  UNL1        0.1655
     19 O           8.4725   38.8578    7.4282 O.2     1  UNL1       -0.1686
     20 O           6.5549   39.1434    5.9436 O.2     1  UNL1       -0.1686
     21 S           7.8753   39.7295    6.3597 S.O2    1  UNL1        0.0092
     22 C           7.6318   41.3458    7.0001 C.ar    1  UNL1        0.1057
     23 C           8.1549   41.6872    8.2525 C.ar    1  UNL1        0.0183
     24 C           7.9739   42.9772    8.7600 C.ar    1  UNL1        0.0013
     25 C           7.2717   43.9295    8.0151 C.ar    1  UNL1        0.0001
     26 C           6.7508   43.5918    6.7623 C.ar    1  UNL1        0.0013
     27 C           6.9316   42.3017    6.2549 C.ar    1  UNL1        0.0183
@<TRIPOS>BOND
     1     5     2    1
     2     5    13   ar
     3    17     1    1
     4    17    18    1
     5    18    21    1
     6    23    24   ar
     7    25    26   ar
     8    27    22   ar
     9     6    13   ar
    10     7     8   ar
    11     7    12   ar
    12     8    14    1
    13     9    10   ar
    14    11     6   ar
    15    15    14    1
    16    15    16    1
    17     2     1   am
    18    21    22    1
    19     5    12   ar
    20     1     3    2
    21    22    23   ar
    22    24    25   ar
    23    26    27   ar
    24     6     7   ar
    25     8     9   ar
    26    10    11   ar
    27    21    19    2
    28    21    20    2
    29     2     4    1
