@<TRIPOS>MOLECULE
Molport-046-951-093 MCULE-4515069063 MCULE-8858451238 PubChem-110089564
 22 24 0 0 0
SMALL
GASTEIGER

@<TRIPOS>ATOM
      1 C          14.2726   40.7792    9.1266 C.ar    1  UNL1        0.1328
      2 C          14.5722   39.8128   10.0963 C.ar    1  UNL1        0.0344
      3 C          13.6002   39.4437   11.0260 C.ar    1  UNL1        0.0041
      4 C          12.3394   40.0378   10.9841 C.ar    1  UNL1        0.0149
      5 C          12.0674   41.0013   10.0033 C.ar    1  UNL1        0.0614
      6 N          13.0339   41.3432    9.1083 N.ar    1  UNL1       -0.2348
      7 C          10.7294   41.6647    9.9211 C.3     1  UNL1        0.0561
      8 C           9.8345   41.2426   11.0862 C.3     1  UNL1        0.0087
      9 C           8.4485   41.8612   10.9382 C.3     1  UNL1        0.0175
     10 C           7.8809   41.5213    9.5621 C.3     1  UNL1        0.0686
     11 C          10.0417   41.3556    8.5892 C.3     1  UNL1        0.0745
     12 N           8.7560   42.0478    8.5160 N.3     1  UNL1       -0.2971
     13 H           8.8962   43.0482    8.6570 H       1  UNL1        0.1233
     14 N          15.2355   41.1949    8.1475 N.pl3   1  UNL1       -0.2836
     15 H          16.0005   40.5913    8.0071 H       1  UNL1        0.1550
     16 C          17.3488   43.1486    8.4644 C.3     1  UNL1        0.0340
     17 C          16.2350   43.3431    7.4935 C.ar    1  UNL1        0.0099
     18 C          15.2144   42.3885    7.3478 C.ar    1  UNL1        0.1291
     19 C          14.1743   43.7322    5.6782 C.ar    1  UNL1        0.1003
     20 C          15.1720   44.6998    5.7981 C.ar    1  UNL1        0.0204
     21 C          16.2061   44.4998    6.7122 C.ar    1  UNL1        0.0001
     22 N          14.2164   42.6109    6.4463 N.ar    1  UNL1       -0.2294
@<TRIPOS>BOND
     1    16    17    1
     2    18    22   ar
     3    18    14    1
     4    19    20   ar
     5    21    17   ar
     6     1     6   ar
     7     2     3   ar
     8     4     5   ar
     9     7     5    1
    10     7     8    1
    11     8     9    1
    12     9    10    1
    13    10    12    1
    14    11    12    1
    15    11     7    1
    16    14     1    1
    17    17    18   ar
    18    19    22   ar
    19    20    21   ar
    20     1     2   ar
    21     3     4   ar
    22     5     6   ar
    23    14    15    1
    24    12    13    1
@<TRIPOS>MOLECULE
Molport-046-951-093 MCULE-4515069063 MCULE-8858451238 PubChem-110089564
 22 24 0 0 0
SMALL
GASTEIGER

@<TRIPOS>ATOM
      1 C          12.8376   41.4302    7.5685 C.ar    1  UNL1        0.1328
      2 C          12.4530   41.5284    6.2244 C.ar    1  UNL1        0.0344
      3 C          11.1025   41.4467    5.8854 C.ar    1  UNL1        0.0041
      4 C          10.1463   41.2683    6.8845 C.ar    1  UNL1        0.0149
      5 C          10.5595   41.1735    8.2203 C.ar    1  UNL1        0.0614
      6 N          11.8836   41.2563    8.5236 N.ar    1  UNL1       -0.2348
      7 C           9.5688   40.9816    9.3244 C.3     1  UNL1        0.0561
      8 C           8.4193   41.9827    9.2111 C.3     1  UNL1        0.0087
      9 C           7.4663   41.8280   10.3916 C.3     1  UNL1        0.0175
     10 C           8.2505   41.9254   11.6981 C.3     1  UNL1        0.0686
     11 C          10.2400   41.1023   10.6946 C.3     1  UNL1        0.0745
     12 N           9.2608   40.8702   11.7550 N.3     1  UNL1       -0.2971
     13 H           8.8168   39.9620   11.6195 H       1  UNL1        0.1233
     14 N          14.2125   41.5077    7.9713 N.pl3   1  UNL1       -0.2836
     15 H          14.5074   40.8472    8.6392 H       1  UNL1        0.1550
     16 C          16.8896   41.3616    9.0646 C.3     1  UNL1        0.0340
     17 C          16.5117   42.3739    8.0383 C.ar    1  UNL1        0.0099
     18 C          15.2095   42.4361    7.5145 C.ar    1  UNL1        0.1291
     19 C          15.8374   44.2694    6.1289 C.ar    1  UNL1        0.1003
     20 C          17.1394   44.2349    6.6285 C.ar    1  UNL1        0.0204
     21 C          17.4739   43.2802    7.5885 C.ar    1  UNL1        0.0001
     22 N          14.9116   43.3799    6.5772 N.ar    1  UNL1       -0.2294
@<TRIPOS>BOND
     1    16    17    1
     2    18    22   ar
     3    18    14    1
     4    19    20   ar
     5    21    17   ar
     6     1     6   ar
     7     2     3   ar
     8     4     5   ar
     9     7     5    1
    10     7     8    1
    11     8     9    1
    12     9    10    1
    13    10    12    1
    14    11    12    1
    15    11     7    1
    16    14     1    1
    17    17    18   ar
    18    19    22   ar
    19    20    21   ar
    20     1     2   ar
    21     3     4   ar
    22     5     6   ar
    23    14    15    1
    24    12    13    1
@<TRIPOS>MOLECULE
Molport-046-951-093 MCULE-4515069063 MCULE-8858451238 PubChem-110089564
 22 24 0 0 0
SMALL
GASTEIGER

@<TRIPOS>ATOM
      1 C          13.8308   40.8957    8.7842 C.ar    1  UNL1        0.1328
      2 C          14.6690   40.2068    9.6712 C.ar    1  UNL1        0.0344
      3 C          14.1274   39.6097   10.8094 C.ar    1  UNL1        0.0041
      4 C          12.7582   39.7023   11.0562 C.ar    1  UNL1        0.0149
      5 C          11.9436   40.3972   10.1519 C.ar    1  UNL1        0.0614
      6 N          12.4978   40.9706    9.0491 N.ar    1  UNL1       -0.2348
      7 C          10.4702   40.5221   10.3766 C.3     1  UNL1        0.0561
      8 C           9.8231   41.3966    9.3028 C.3     1  UNL1        0.0087
      9 C           8.3382   41.5820    9.5972 C.3     1  UNL1        0.0175
     10 C           8.1606   42.1083   11.0195 C.3     1  UNL1        0.0686
     11 C          10.1704   41.0864   11.7674 C.3     1  UNL1        0.0745
     12 N           8.7256   41.1600   11.9781 N.3     1  UNL1       -0.2971
     13 H           8.3105   40.2393   11.8356 H       1  UNL1        0.1233
     14 N          14.3362   41.5276    7.5993 N.pl3   1  UNL1       -0.2836
     15 H          13.8504   41.3373    6.7645 H       1  UNL1        0.1550
     16 C          14.1721   43.8357    5.8588 C.3     1  UNL1        0.0340
     17 C          15.3994   43.5284    6.6465 C.ar    1  UNL1        0.0099
     18 C          15.4683   42.4055    7.4881 C.ar    1  UNL1        0.1291
     19 C          17.6973   42.9816    8.1004 C.ar    1  UNL1        0.1003
     20 C          17.6619   44.1048    7.2739 C.ar    1  UNL1        0.0204
     21 C          16.5044   44.3757    6.5447 C.ar    1  UNL1        0.0001
     22 N          16.6128   42.1659    8.1887 N.ar    1  UNL1       -0.2294
@<TRIPOS>BOND
     1    16    17    1
     2    18    22   ar
     3    18    14    1
     4    19    20   ar
     5    21    17   ar
     6     1     6   ar
     7     2     3   ar
     8     4     5   ar
     9     7     5    1
    10     7     8    1
    11     8     9    1
    12     9    10    1
    13    10    12    1
    14    11    12    1
    15    11     7    1
    16    14     1    1
    17    17    18   ar
    18    19    22   ar
    19    20    21   ar
    20     1     2   ar
    21     3     4   ar
    22     5     6   ar
    23    14    15    1
    24    12    13    1
@<TRIPOS>MOLECULE
Molport-046-951-093 MCULE-4515069063 MCULE-8858451238 PubChem-110089564
 22 24 0 0 0
SMALL
GASTEIGER

@<TRIPOS>ATOM
      1 C          13.1147   41.0923    8.5676 C.ar    1  UNL1        0.1328
      2 C          13.1444   40.5312    9.8514 C.ar    1  UNL1        0.0344
      3 C          11.9611   40.4123   10.5802 C.ar    1  UNL1        0.0041
      4 C          10.7590   40.8518   10.0270 C.ar    1  UNL1        0.0149
      5 C          10.7587   41.4087    8.7410 C.ar    1  UNL1        0.0614
      6 N          11.9275   41.5131    8.0516 N.ar    1  UNL1       -0.2348
      7 C           9.4930   41.8936    8.1084 C.3     1  UNL1        0.0561
      8 C           8.2862   41.1098    8.6239 C.3     1  UNL1        0.0087
      9 C           7.0185   41.5597    7.9053 C.3     1  UNL1        0.0175
     10 C           7.2250   41.4634    6.3954 C.3     1  UNL1        0.0686
     11 C           9.5688   41.8017    6.5826 C.3     1  UNL1        0.0745
     12 N           8.3379   42.3190    5.9872 N.3     1  UNL1       -0.2971
     13 H           8.1745   43.2725    6.3105 H       1  UNL1        0.1233
     14 N          14.3024   41.2377    7.7760 N.pl3   1  UNL1       -0.2836
     15 H          14.8003   40.4105    7.5836 H       1  UNL1        0.1550
     16 C          16.9385   42.0987    8.6088 C.3     1  UNL1        0.0340
     17 C          16.1290   42.8759    7.6281 C.ar    1  UNL1        0.0099
     18 C          14.8506   42.4490    7.2310 C.ar    1  UNL1        0.1291
     19 C          14.6451   44.3432    5.8011 C.ar    1  UNL1        0.1003
     20 C          15.9110   44.7952    6.1742 C.ar    1  UNL1        0.0204
     21 C          16.6534   44.0541    7.0933 C.ar    1  UNL1        0.0001
     22 N          14.1481   43.1937    6.3310 N.ar    1  UNL1       -0.2294
@<TRIPOS>BOND
     1    16    17    1
     2    18    22   ar
     3    18    14    1
     4    19    20   ar
     5    21    17   ar
     6     1     6   ar
     7     2     3   ar
     8     4     5   ar
     9     7     5    1
    10     7     8    1
    11     8     9    1
    12     9    10    1
    13    10    12    1
    14    11    12    1
    15    11     7    1
    16    14     1    1
    17    17    18   ar
    18    19    22   ar
    19    20    21   ar
    20     1     2   ar
    21     3     4   ar
    22     5     6   ar
    23    14    15    1
    24    12    13    1
@<TRIPOS>MOLECULE
Molport-046-951-093 MCULE-4515069063 MCULE-8858451238 PubChem-110089564
 22 24 0 0 0
SMALL
GASTEIGER

@<TRIPOS>ATOM
      1 C          13.1363   41.7211    8.1895 C.ar    1  UNL1        0.1328
      2 C          11.8987   42.3533    8.3707 C.ar    1  UNL1        0.0344
      3 C          11.0777   41.9716    9.4316 C.ar    1  UNL1        0.0041
      4 C          11.4934   40.9655   10.3030 C.ar    1  UNL1        0.0149
      5 C          12.7360   40.3507   10.0980 C.ar    1  UNL1        0.0614
      6 N          13.5175   40.7421    9.0549 N.ar    1  UNL1       -0.2348
      7 C          13.2220   39.2671   11.0072 C.3     1  UNL1        0.0561
      8 C          14.7488   39.2549   11.0799 C.3     1  UNL1        0.0087
      9 C          15.2269   38.0914   11.9423 C.3     1  UNL1        0.0175
     10 C          14.6175   36.7893   11.4279 C.3     1  UNL1        0.0686
     11 C          12.7046   37.8981   10.5594 C.3     1  UNL1        0.0745
     12 N          13.1585   36.8626   11.4861 N.3     1  UNL1       -0.2971
     13 H          12.8640   37.0971   12.4341 H       1  UNL1        0.1233
     14 N          14.0186   42.0754    7.1149 N.pl3   1  UNL1       -0.2836
     15 H          13.7069   41.8570    6.2070 H       1  UNL1        0.1550
     16 C          14.5601   44.4165    5.4995 C.3     1  UNL1        0.0340
     17 C          15.5769   43.8481    6.4290 C.ar    1  UNL1        0.0099
     18 C          15.3036   42.7114    7.2084 C.ar    1  UNL1        0.1291
     19 C          17.4893   42.8123    8.1504 C.ar    1  UNL1        0.1003
     20 C          17.7931   43.9422    7.3906 C.ar    1  UNL1        0.0204
     21 C          16.8284   44.4594    6.5264 C.ar    1  UNL1        0.0001
     22 N          16.2659   42.2283    8.0442 N.ar    1  UNL1       -0.2294
@<TRIPOS>BOND
     1    16    17    1
     2    18    22   ar
     3    18    14    1
     4    19    20   ar
     5    21    17   ar
     6     1     6   ar
     7     2     3   ar
     8     4     5   ar
     9     7     5    1
    10     7     8    1
    11     8     9    1
    12     9    10    1
    13    10    12    1
    14    11    12    1
    15    11     7    1
    16    14     1    1
    17    17    18   ar
    18    19    22   ar
    19    20    21   ar
    20     1     2   ar
    21     3     4   ar
    22     5     6   ar
    23    14    15    1
    24    12    13    1
@<TRIPOS>MOLECULE
Molport-046-951-093 MCULE-4515069063 MCULE-8858451238 PubChem-110089564
 22 24 0 0 0
SMALL
GASTEIGER

@<TRIPOS>ATOM
      1 C          11.7849   41.5640    6.9448 C.ar    1  UNL1        0.1328
      2 C          11.4646   41.0814    5.6687 C.ar    1  UNL1        0.0344
      3 C          10.1269   40.9569    5.2938 C.ar    1  UNL1        0.0041
      4 C           9.1196   41.3132    6.1897 C.ar    1  UNL1        0.0149
      5 C           9.4689   41.7932    7.4592 C.ar    1  UNL1        0.0614
      6 N          10.7819   41.9046    7.7996 N.ar    1  UNL1       -0.2348
      7 C           8.4219   42.1867    8.4522 C.3     1  UNL1        0.0561
      8 C           7.3707   41.0878    8.6065 C.3     1  UNL1        0.0087
      9 C           6.2678   41.5421    9.5568 C.3     1  UNL1        0.0175
     10 C           5.7050   42.8806    9.0846 C.3     1  UNL1        0.0686
     11 C           7.7527   43.5045    8.0549 C.3     1  UNL1        0.0745
     12 N           6.7639   43.8883    9.0610 N.3     1  UNL1       -0.2971
     13 H           7.2088   43.9403    9.9774 H       1  UNL1        0.1233
     14 N          13.1439   41.7114    7.3807 N.pl3   1  UNL1       -0.2836
     15 H          13.4683   41.0420    8.0256 H       1  UNL1        0.1550
     16 C          15.8455   41.6069    8.4170 C.3     1  UNL1        0.0340
     17 C          15.4007   42.6799    7.4833 C.ar    1  UNL1        0.0099
     18 C          14.0871   42.7211    6.9864 C.ar    1  UNL1        0.1291
     19 C          14.6011   44.6894    5.7467 C.ar    1  UNL1        0.1003
     20 C          15.9127   44.6777    6.2216 C.ar    1  UNL1        0.0204
     21 C          16.3102   43.6653    7.0947 C.ar    1  UNL1        0.0001
     22 N          13.7270   43.7225    6.1345 N.ar    1  UNL1       -0.2294
@<TRIPOS>BOND
     1    16    17    1
     2    18    22   ar
     3    18    14    1
     4    19    20   ar
     5    21    17   ar
     6     1     6   ar
     7     2     3   ar
     8     4     5   ar
     9     7     5    1
    10     7     8    1
    11     8     9    1
    12     9    10    1
    13    10    12    1
    14    11    12    1
    15    11     7    1
    16    14     1    1
    17    17    18   ar
    18    19    22   ar
    19    20    21   ar
    20     1     2   ar
    21     3     4   ar
    22     5     6   ar
    23    14    15    1
    24    12    13    1
@<TRIPOS>MOLECULE
Molport-046-951-093 MCULE-4515069063 MCULE-8858451238 PubChem-110089564
 22 24 0 0 0
SMALL
GASTEIGER

@<TRIPOS>ATOM
      1 C          10.6954   42.2055    8.4492 C.ar    1  UNL1        0.1328
      2 C          11.0486   42.5528    9.7602 C.ar    1  UNL1        0.0344
      3 C          10.0725   43.0310   10.6342 C.ar    1  UNL1        0.0041
      4 C           8.7544   43.1597   10.1982 C.ar    1  UNL1        0.0149
      5 C           8.4295   42.8048    8.8819 C.ar    1  UNL1        0.0614
      6 N           9.4012   42.3410    8.0497 N.ar    1  UNL1       -0.2348
      7 C           7.0289   42.9268    8.3713 C.3     1  UNL1        0.0561
      8 C           6.5943   44.3908    8.3047 C.3     1  UNL1        0.0087
      9 C           5.1375   44.4894    7.8642 C.3     1  UNL1        0.0175
     10 C           4.2688   43.6225    8.7727 C.3     1  UNL1        0.0686
     11 C           6.0542   42.1264    9.2383 C.3     1  UNL1        0.0745
     12 N           4.7005   42.2279    8.6957 N.3     1  UNL1       -0.2971
     13 H           4.6966   41.9205    7.7231 H       1  UNL1        0.1233
     14 N          11.6599   41.7090    7.5102 N.pl3   1  UNL1       -0.2836
     15 H          11.4332   40.8628    7.0610 H       1  UNL1        0.1550
     16 C          14.1022   40.6560    8.6550 C.3     1  UNL1        0.0340
     17 C          14.1091   41.7985    7.6980 C.ar    1  UNL1        0.0099
     18 C          12.9179   42.3017    7.1485 C.ar    1  UNL1        0.1291
     19 C          14.1528   43.9263    5.9193 C.ar    1  UNL1        0.1003
     20 C          15.3536   43.4509    6.4467 C.ar    1  UNL1        0.0204
     21 C          15.3267   42.3808    7.3407 C.ar    1  UNL1        0.0001
     22 N          12.9750   43.3484    6.2772 N.ar    1  UNL1       -0.2294
@<TRIPOS>BOND
     1    16    17    1
     2    18    22   ar
     3    18    14    1
     4    19    20   ar
     5    21    17   ar
     6     1     6   ar
     7     2     3   ar
     8     4     5   ar
     9     7     5    1
    10     7     8    1
    11     8     9    1
    12     9    10    1
    13    10    12    1
    14    11    12    1
    15    11     7    1
    16    14     1    1
    17    17    18   ar
    18    19    22   ar
    19    20    21   ar
    20     1     2   ar
    21     3     4   ar
    22     5     6   ar
    23    14    15    1
    24    12    13    1
@<TRIPOS>MOLECULE
Molport-046-951-093 MCULE-4515069063 MCULE-8858451238 PubChem-110089564
 22 24 0 0 0
SMALL
GASTEIGER

@<TRIPOS>ATOM
      1 C          10.8254   41.2473    5.7614 C.ar    1  UNL1        0.1328
      2 C          10.8835   39.9510    5.2322 C.ar    1  UNL1        0.0344
      3 C           9.7174   39.1916    5.1370 C.ar    1  UNL1        0.0041
      4 C           8.5042   39.7270    5.5681 C.ar    1  UNL1        0.0149
      5 C           8.4755   41.0261    6.0928 C.ar    1  UNL1        0.0614
      6 N           9.6280   41.7454    6.1746 N.ar    1  UNL1       -0.2348
      7 C           7.1971   41.6404    6.5675 C.3     1  UNL1        0.0561
      8 C           7.4206   43.0762    7.0420 C.3     1  UNL1        0.0087
      9 C           6.1251   43.6551    7.6009 C.3     1  UNL1        0.0175
     10 C           5.5704   42.7232    8.6758 C.3     1  UNL1        0.0686
     11 C           6.5672   40.8075    7.6864 C.3     1  UNL1        0.0745
     12 N           5.3001   41.4051    8.1042 N.3     1  UNL1       -0.2971
     13 H           4.6831   41.5005    7.2977 H       1  UNL1        0.1233
     14 N          11.9945   42.0703    5.8816 N.pl3   1  UNL1       -0.2836
     15 H          12.0222   42.8718    5.3105 H       1  UNL1        0.1550
     16 C          14.3713   43.6788    5.4972 C.3     1  UNL1        0.0340
     17 C          14.2880   42.6372    6.5598 C.ar    1  UNL1        0.0099
     18 C          13.1297   41.8622    6.7376 C.ar    1  UNL1        0.1291
     19 C          14.1622   40.7055    8.5462 C.ar    1  UNL1        0.1003
     20 C          15.3274   41.4577    8.3965 C.ar    1  UNL1        0.0204
     21 C          15.3861   42.4278    7.3963 C.ar    1  UNL1        0.0001
     22 N          13.1012   40.9213    7.7235 N.ar    1  UNL1       -0.2294
@<TRIPOS>BOND
     1    16    17    1
     2    18    22   ar
     3    18    14    1
     4    19    20   ar
     5    21    17   ar
     6     1     6   ar
     7     2     3   ar
     8     4     5   ar
     9     7     5    1
    10     7     8    1
    11     8     9    1
    12     9    10    1
    13    10    12    1
    14    11    12    1
    15    11     7    1
    16    14     1    1
    17    17    18   ar
    18    19    22   ar
    19    20    21   ar
    20     1     2   ar
    21     3     4   ar
    22     5     6   ar
    23    14    15    1
    24    12    13    1
@<TRIPOS>MOLECULE
Molport-046-951-093 MCULE-4515069063 MCULE-8858451238 PubChem-110089564
 22 24 0 0 0
SMALL
GASTEIGER

@<TRIPOS>ATOM
      1 C          12.6209   42.0923    6.4374 C.ar    1  UNL1        0.1328
      2 C          13.6754   42.9771    6.1745 C.ar    1  UNL1        0.0344
      3 C          14.8731   42.8516    6.8781 C.ar    1  UNL1        0.0041
      4 C          15.0126   41.8484    7.8364 C.ar    1  UNL1        0.0149
      5 C          13.9416   40.9774    8.0785 C.ar    1  UNL1        0.0614
      6 N          12.7839   41.1220    7.3779 N.ar    1  UNL1       -0.2348
      7 C          14.0465   39.8873    9.0972 C.3     1  UNL1        0.0561
      8 C          13.1766   40.1900   10.3171 C.3     1  UNL1        0.0087
      9 C          13.3630   39.1114   11.3790 C.3     1  UNL1        0.0175
     10 C          14.8486   38.9572   11.6963 C.3     1  UNL1        0.0686
     11 C          15.4997   39.6716    9.5264 C.3     1  UNL1        0.0745
     12 N          15.5807   38.5751   10.4899 N.3     1  UNL1       -0.2971
     13 H          15.1661   37.7340   10.0886 H       1  UNL1        0.1233
     14 N          11.3685   42.1775    5.7425 N.pl3   1  UNL1       -0.2836
     15 H          11.3178   42.8427    5.0185 H       1  UNL1        0.1550
     16 C          10.8065   39.8904    4.0581 C.3     1  UNL1        0.0340
     17 C           9.8973   40.2941    5.1678 C.ar    1  UNL1        0.0099
     18 C          10.1797   41.4060    5.9791 C.ar    1  UNL1        0.1291
     19 C           8.1864   41.0220    7.2260 C.ar    1  UNL1        0.1003
     20 C           7.8765   39.9127    6.4390 C.ar    1  UNL1        0.0204
     21 C           8.7398   39.5505    5.4052 C.ar    1  UNL1        0.0001
     22 N           9.3176   41.7362    6.9821 N.ar    1  UNL1       -0.2294
@<TRIPOS>BOND
     1    16    17    1
     2    18    22   ar
     3    18    14    1
     4    19    20   ar
     5    21    17   ar
     6     1     6   ar
     7     2     3   ar
     8     4     5   ar
     9     7     5    1
    10     7     8    1
    11     8     9    1
    12     9    10    1
    13    10    12    1
    14    11    12    1
    15    11     7    1
    16    14     1    1
    17    17    18   ar
    18    19    22   ar
    19    20    21   ar
    20     1     2   ar
    21     3     4   ar
    22     5     6   ar
    23    14    15    1
    24    12    13    1
@<TRIPOS>MOLECULE
Molport-046-951-093 MCULE-4515069063 MCULE-8858451238 PubChem-110089564
 22 24 0 0 0
SMALL
GASTEIGER

@<TRIPOS>ATOM
      1 C          12.5957   40.7334    8.9021 C.ar    1  UNL1        0.1328
      2 C          12.5402   40.4078   10.2641 C.ar    1  UNL1        0.0344
      3 C          11.3599   40.6190   10.9765 C.ar    1  UNL1        0.0041
      4 C          10.2454   41.1517   10.3297 C.ar    1  UNL1        0.0149
      5 C          10.3293   41.4679    8.9669 C.ar    1  UNL1        0.0614
      6 N          11.4931   41.2519    8.2954 N.ar    1  UNL1       -0.2348
      7 C           9.1591   42.0415    8.2327 C.3     1  UNL1        0.0561
      8 C           7.8519   41.3977    8.6943 C.3     1  UNL1        0.0087
      9 C           6.6820   41.9329    7.8754 C.3     1  UNL1        0.0175
     10 C           6.9739   41.7520    6.3876 C.3     1  UNL1        0.0686
     11 C           9.3227   41.8765    6.7199 C.3     1  UNL1        0.0745
     12 N           8.1880   42.4807    6.0238 N.3     1  UNL1       -0.2971
     13 H           8.0972   43.4585    6.2996 H       1  UNL1        0.1233
     14 N          13.7844   40.5362    8.1232 N.pl3   1  UNL1       -0.2836
     15 H          13.7928   39.7463    7.5357 H       1  UNL1        0.1550
     16 C          13.8895   42.8150    6.3400 C.3     1  UNL1        0.0340
     17 C          15.0256   42.4645    7.2385 C.ar    1  UNL1        0.0099
     18 C          14.9641   41.3562    8.0999 C.ar    1  UNL1        0.1291
     19 C          17.1562   41.8362    8.8996 C.ar    1  UNL1        0.1003
     20 C          17.2498   42.9435    8.0562 C.ar    1  UNL1        0.0204
     21 C          16.1761   43.2555    7.2227 C.ar    1  UNL1        0.0001
     22 N          16.0290   41.0757    8.9033 N.ar    1  UNL1       -0.2294
@<TRIPOS>BOND
     1    16    17    1
     2    18    22   ar
     3    18    14    1
     4    19    20   ar
     5    21    17   ar
     6     1     6   ar
     7     2     3   ar
     8     4     5   ar
     9     7     5    1
    10     7     8    1
    11     8     9    1
    12     9    10    1
    13    10    12    1
    14    11    12    1
    15    11     7    1
    16    14     1    1
    17    17    18   ar
    18    19    22   ar
    19    20    21   ar
    20     1     2   ar
    21     3     4   ar
    22     5     6   ar
    23    14    15    1
    24    12    13    1
