@<TRIPOS>MOLECULE
MolPort-002-787-956 36617993 CSSS00133001352 MCULE-7283028708 PubChem-44824205 ZINC000036617993
 31 34 0 0 0
SMALL
GASTEIGER

@<TRIPOS>ATOM
      1 C          11.0961   40.4746    4.7923 C.ar    1  UNL1        0.2599
      2 C           8.9953   39.9882    4.8887 C.ar    1  UNL1        0.1027
      3 C           7.5818   39.7676    5.2970 C.3     1  UNL1        0.0557
      4 C           9.9888   40.6810    5.5681 C.ar    1  UNL1        0.0771
      5 C          10.0771   41.4177    6.7640 C.ar    1  UNL1        0.0611
      6 C          11.3548   41.9025    7.1089 C.ar    1  UNL1        0.0255
      7 C          12.4722   41.6633    6.2748 C.ar    1  UNL1        0.1039
      8 O          10.7960   39.7510    3.7459 O.2     1  UNL1       -0.3342
      9 N           9.5301   39.4354    3.7741 N.ar    1  UNL1       -0.0795
     10 N          12.3213   40.9502    5.1189 N.ar    1  UNL1       -0.2077
     11 C          13.7990   42.1788    6.6431 C.ar    1  UNL1        0.1201
     12 C          14.5615   41.7638    7.7261 C.ar    1  UNL1        0.0426
     13 C          15.7096   42.5347    7.6392 C.ar    1  UNL1        0.0967
     14 N          15.5911   43.3405    6.5690 N.ar    1  UNL1       -0.2494
     15 N          14.4439   43.1338    5.9507 N.ar    1  UNL1       -0.1677
     16 C          16.5984   44.2821    6.1120 C.3     1  UNL1        0.1276
     17 C          17.8213   44.2046    7.0055 C.3     1  UNL1        0.0284
     18 C           8.9341   41.7316    7.6444 C.2     1  UNL1        0.2508
     19 O           9.0080   42.6752    8.4744 O.2     1  UNL1       -0.2698
     20 N           7.7589   40.9110    7.5867 N.am    1  UNL1       -0.2644
     21 H           7.7651   40.1627    6.9471 H       1  UNL1        0.1566
     22 C           6.5775   41.0842    8.3775 C.ar    1  UNL1        0.1553
     23 C           4.5399   41.2595    9.0660 C.ar    1  UNL1        0.0588
     24 C           5.2682   41.0471    7.9107 C.ar    1  UNL1        0.0505
     25 C           3.0527   41.3083    9.1439 C.3     1  UNL1        0.0518
     26 N           6.6214   41.2985    9.7057 N.ar    1  UNL1       -0.1543
     27 N           5.3710   41.4111   10.1132 N.ar    1  UNL1       -0.2537
     28 C           4.9895   41.6127   11.5025 C.3     1  UNL1        0.1271
     29 C           6.2136   41.9729   12.3276 C.3     1  UNL1        0.0263
     30 C           7.2597   40.8773   12.2298 C.3     1  UNL1        0.0021
     31 C           8.6373   41.4310   12.5419 C.3     1  UNL1        0.0001
@<TRIPOS>BOND
     1     1     8   ar
     2     1    10   ar
     3     2     4   ar
     4     3     2    1
     5     4     5   ar
     6     5    18    1
     7    18    20   am
     8    28    27    1
     9    28    29    1
    10    29    30    1
    11    30    31    1
    12    24    22   ar
    13    25    23    1
    14     6     7   ar
    15     7    11    1
    16    11    12   ar
    17    13    14   ar
    18    16    14    1
    19    16    17    1
    20     8     9   ar
    21    20    22    1
    22    27    26   ar
    23    27    23   ar
    24    14    15   ar
    25     2     9   ar
    26     4     1   ar
    27     5     6   ar
    28    18    19    2
    29    22    26   ar
    30    23    24   ar
    31     7    10   ar
    32    11    15   ar
    33    12    13   ar
    34    20    21    1
@<TRIPOS>MOLECULE
MolPort-002-787-956 36617993 CSSS00133001352 MCULE-7283028708 PubChem-44824205 ZINC000036617993
 31 34 0 0 0
SMALL
GASTEIGER

@<TRIPOS>ATOM
      1 C          11.7701   39.9870    8.8933 C.ar    1  UNL1        0.2599
      2 C          11.5907   38.0402    9.8081 C.ar    1  UNL1        0.1027
      3 C          11.8013   36.6543   10.3063 C.3     1  UNL1        0.0557
      4 C          12.5278   38.9130    9.2708 C.ar    1  UNL1        0.0771
      5 C          13.9142   38.8918    9.0292 C.ar    1  UNL1        0.0611
      6 C          14.4536   40.0168    8.3734 C.ar    1  UNL1        0.0255
      7 C          13.6298   41.1049    8.0009 C.ar    1  UNL1        0.1039
      8 O          10.5126   39.7898    9.1906 O.2     1  UNL1       -0.3342
      9 N          10.3672   38.6170    9.7441 N.ar    1  UNL1       -0.0795
     10 N          12.2910   41.0724    8.2730 N.ar    1  UNL1       -0.2077
     11 C          14.2054   42.2750    7.3217 C.ar    1  UNL1        0.1201
     12 C          13.5232   43.1476    6.4851 C.ar    1  UNL1        0.0426
     13 C          14.4874   44.0686    6.1079 C.ar    1  UNL1        0.0967
     14 N          15.6463   43.7245    6.6975 N.ar    1  UNL1       -0.2494
     15 N          15.4922   42.6452    7.4409 N.ar    1  UNL1       -0.1677
     16 C          16.8958   44.4562    6.5824 C.3     1  UNL1        0.1276
     17 C          17.8946   43.9362    7.5982 C.3     1  UNL1        0.0284
     18 C          14.8222   37.8016    9.4376 C.2     1  UNL1        0.2508
     19 O          15.0175   37.5564   10.6568 O.2     1  UNL1       -0.2698
     20 N          15.5277   37.0627    8.4306 N.am    1  UNL1       -0.2644
     21 H          15.3688   37.3176    7.4930 H       1  UNL1        0.1566
     22 C          16.4428   35.9870    8.6685 C.ar    1  UNL1        0.1553
     23 C          18.1783   34.7967    9.1458 C.ar    1  UNL1        0.0588
     24 C          17.7740   36.1149    9.0496 C.ar    1  UNL1        0.0505
     25 C          19.5435   34.3462    9.5376 C.3     1  UNL1        0.0518
     26 N          16.0856   34.6945    8.5514 N.ar    1  UNL1       -0.1543
     27 N          17.1560   33.9777    8.8384 N.ar    1  UNL1       -0.2537
     28 C          17.1715   32.5232    8.8616 C.3     1  UNL1        0.1271
     29 C          17.0636   31.9824    7.4457 C.3     1  UNL1        0.0263
     30 C          15.7231   31.3009    7.2394 C.3     1  UNL1        0.0021
     31 C          14.9181   31.3154    8.5253 C.3     1  UNL1        0.0001
@<TRIPOS>BOND
     1     1     8   ar
     2     1    10   ar
     3     2     4   ar
     4     3     2    1
     5     4     5   ar
     6     5    18    1
     7    18    20   am
     8    28    27    1
     9    28    29    1
    10    29    30    1
    11    30    31    1
    12    24    22   ar
    13    25    23    1
    14     6     7   ar
    15     7    11    1
    16    11    12   ar
    17    13    14   ar
    18    16    14    1
    19    16    17    1
    20     8     9   ar
    21    20    22    1
    22    27    26   ar
    23    27    23   ar
    24    14    15   ar
    25     2     9   ar
    26     4     1   ar
    27     5     6   ar
    28    18    19    2
    29    22    26   ar
    30    23    24   ar
    31     7    10   ar
    32    11    15   ar
    33    12    13   ar
    34    20    21    1
@<TRIPOS>MOLECULE
MolPort-002-787-956 36617993 CSSS00133001352 MCULE-7283028708 PubChem-44824205 ZINC000036617993
 31 34 0 0 0
SMALL
GASTEIGER

@<TRIPOS>ATOM
      1 C          13.0059   40.8716    9.6185 C.ar    1  UNL1        0.2599
      2 C          11.3028   40.5460   10.9040 C.ar    1  UNL1        0.1027
      3 C          10.0198   40.6378   11.6515 C.3     1  UNL1        0.0557
      4 C          11.7303   41.3166    9.8308 C.ar    1  UNL1        0.0771
      5 C          11.1946   42.3594    9.0519 C.ar    1  UNL1        0.0611
      6 C          12.0455   42.9120    8.0736 C.ar    1  UNL1        0.0255
      7 C          13.3588   42.4190    7.8906 C.ar    1  UNL1        0.1039
      8 O          13.3070   39.9195   10.4619 O.2     1  UNL1       -0.3342
      9 N          12.2976   39.6984   11.2589 N.ar    1  UNL1       -0.0795
     10 N          13.8190   41.3958    8.6708 N.ar    1  UNL1       -0.2077
     11 C          14.2350   43.0006    6.8632 C.ar    1  UNL1        0.1201
     12 C          13.8256   43.5162    5.6413 C.ar    1  UNL1        0.0426
     13 C          15.0039   43.9389    5.0471 C.ar    1  UNL1        0.0967
     14 N          16.0166   43.6680    5.8897 N.ar    1  UNL1       -0.2494
     15 N          15.5686   43.1061    6.9964 N.ar    1  UNL1       -0.1677
     16 C          17.4137   43.9868    5.6524 C.3     1  UNL1        0.1276
     17 C          18.1740   43.9862    6.9645 C.3     1  UNL1        0.0284
     18 C           9.8177   42.8781    9.1743 C.2     1  UNL1        0.2508
     19 O           9.5514   43.7944    9.9954 O.2     1  UNL1       -0.2698
     20 N           8.7730   42.2850    8.3904 N.am    1  UNL1       -0.2644
     21 H           9.0261   41.5465    7.7906 H       1  UNL1        0.1566
     22 C           7.3941   42.6721    8.4033 C.ar    1  UNL1        0.1553
     23 C           5.5189   43.7054    8.1341 C.ar    1  UNL1        0.0588
     24 C           6.8660   43.8348    7.8530 C.ar    1  UNL1        0.0505
     25 C           4.4663   44.6887    7.7529 C.3     1  UNL1        0.0518
     26 N           6.4348   41.9119    8.9635 N.ar    1  UNL1       -0.1543
     27 N           5.2953   42.5572    8.7989 N.ar    1  UNL1       -0.2537
     28 C           4.0062   42.0438    9.2360 C.3     1  UNL1        0.1271
     29 C           3.6222   42.6740   10.5642 C.3     1  UNL1        0.0263
     30 C           3.5213   41.6128   11.6448 C.3     1  UNL1        0.0021
     31 C           3.9806   40.2687   11.1116 C.3     1  UNL1        0.0001
@<TRIPOS>BOND
     1     1     8   ar
     2     1    10   ar
     3     2     4   ar
     4     3     2    1
     5     4     5   ar
     6     5    18    1
     7    18    20   am
     8    28    27    1
     9    28    29    1
    10    29    30    1
    11    30    31    1
    12    24    22   ar
    13    25    23    1
    14     6     7   ar
    15     7    11    1
    16    11    12   ar
    17    13    14   ar
    18    16    14    1
    19    16    17    1
    20     8     9   ar
    21    20    22    1
    22    27    26   ar
    23    27    23   ar
    24    14    15   ar
    25     2     9   ar
    26     4     1   ar
    27     5     6   ar
    28    18    19    2
    29    22    26   ar
    30    23    24   ar
    31     7    10   ar
    32    11    15   ar
    33    12    13   ar
    34    20    21    1
@<TRIPOS>MOLECULE
MolPort-002-787-956 36617993 CSSS00133001352 MCULE-7283028708 PubChem-44824205 ZINC000036617993
 31 34 0 0 0
SMALL
GASTEIGER

@<TRIPOS>ATOM
      1 C          10.8999   39.9123    5.4994 C.ar    1  UNL1        0.2599
      2 C           8.7879   39.5007    5.6705 C.ar    1  UNL1        0.1027
      3 C           7.3591   39.4314    6.0791 C.3     1  UNL1        0.0557
      4 C           9.7749   40.3597    6.1355 C.ar    1  UNL1        0.0771
      5 C           9.8432   41.4296    7.0474 C.ar    1  UNL1        0.0611
      6 C          11.1198   41.9846    7.2684 C.ar    1  UNL1        0.0255
      7 C          12.2559   41.4878    6.5872 C.ar    1  UNL1        0.1039
      8 O          10.6158   38.9034    4.7184 O.2     1  UNL1       -0.3342
      9 N           9.3436   38.6246    4.8001 N.ar    1  UNL1       -0.0795
     10 N          12.1243   40.4534    5.7040 N.ar    1  UNL1       -0.2077
     11 C          13.5814   42.0787    6.8226 C.ar    1  UNL1        0.1201
     12 C          14.5247   41.6247    7.7340 C.ar    1  UNL1        0.0426
     13 C          15.5878   42.4992    7.5757 C.ar    1  UNL1        0.0967
     14 N          15.2530   43.3964    6.6313 N.ar    1  UNL1       -0.2494
     15 N          14.0448   43.1528    6.1601 N.ar    1  UNL1       -0.1677
     16 C          16.1097   44.4653    6.1481 C.3     1  UNL1        0.1276
     17 C          17.4580   43.9029    5.7413 C.3     1  UNL1        0.0284
     18 C           8.6817   42.0121    7.7486 C.2     1  UNL1        0.2508
     19 O           8.6911   42.1417    9.0007 O.2     1  UNL1       -0.2698
     20 N           7.5164   42.3733    6.9941 N.am    1  UNL1       -0.2644
     21 H           7.5449   42.2177    6.0223 H       1  UNL1        0.1566
     22 C           6.3151   42.9403    7.5294 C.ar    1  UNL1        0.1553
     23 C           4.6084   44.1948    7.9413 C.ar    1  UNL1        0.0588
     24 C           5.7168   44.1263    7.1186 C.ar    1  UNL1        0.0505
     25 C           3.5915   45.2837    7.9193 C.3     1  UNL1        0.0518
     26 N           5.6144   42.3506    8.5159 N.ar    1  UNL1       -0.1543
     27 N           4.5784   43.1301    8.7634 N.ar    1  UNL1       -0.2537
     28 C           3.5516   42.8207    9.7465 C.3     1  UNL1        0.1271
     29 C           2.9439   41.4603    9.4485 C.3     1  UNL1        0.0263
     30 C           3.4887   40.4154   10.4053 C.3     1  UNL1        0.0021
     31 C           3.9143   41.0626   11.7100 C.3     1  UNL1        0.0001
@<TRIPOS>BOND
     1     1     8   ar
     2     1    10   ar
     3     2     4   ar
     4     3     2    1
     5     4     5   ar
     6     5    18    1
     7    18    20   am
     8    28    27    1
     9    28    29    1
    10    29    30    1
    11    30    31    1
    12    24    22   ar
    13    25    23    1
    14     6     7   ar
    15     7    11    1
    16    11    12   ar
    17    13    14   ar
    18    16    14    1
    19    16    17    1
    20     8     9   ar
    21    20    22    1
    22    27    26   ar
    23    27    23   ar
    24    14    15   ar
    25     2     9   ar
    26     4     1   ar
    27     5     6   ar
    28    18    19    2
    29    22    26   ar
    30    23    24   ar
    31     7    10   ar
    32    11    15   ar
    33    12    13   ar
    34    20    21    1
@<TRIPOS>MOLECULE
MolPort-002-787-956 36617993 CSSS00133001352 MCULE-7283028708 PubChem-44824205 ZINC000036617993
 31 34 0 0 0
SMALL
GASTEIGER

@<TRIPOS>ATOM
      1 C           8.3667   41.4400   11.8102 C.ar    1  UNL1        0.2599
      2 C          10.4690   40.9526   11.7660 C.ar    1  UNL1        0.1027
      3 C          11.8643   40.6128   11.3774 C.3     1  UNL1        0.0557
      4 C           9.4297   41.3828   10.9516 C.ar    1  UNL1        0.0771
      5 C           9.2677   41.6868    9.5870 C.ar    1  UNL1        0.0611
      6 C           7.9653   42.0296    9.1713 C.ar    1  UNL1        0.0255
      7 C           6.8958   42.0750   10.0962 C.ar    1  UNL1        0.1039
      8 O           8.7325   41.0998   13.0181 O.2     1  UNL1       -0.3342
      9 N          10.0013   40.7946   13.0270 N.ar    1  UNL1       -0.0795
     10 N           7.1178   41.7802   11.4120 N.ar    1  UNL1       -0.2077
     11 C           5.5426   42.4390    9.6511 C.ar    1  UNL1        0.1201
     12 C           4.3930   41.6846    9.8406 C.ar    1  UNL1        0.0426
     13 C           3.3950   42.4463    9.2542 C.ar    1  UNL1        0.0967
     14 N           3.9588   43.5625    8.7589 N.ar    1  UNL1       -0.2494
     15 N           5.2567   43.5776    8.9960 N.ar    1  UNL1       -0.1677
     16 C           3.2452   44.6385    8.0933 C.3     1  UNL1        0.1276
     17 C           4.2101   45.4620    7.2624 C.3     1  UNL1        0.0284
     18 C          10.3590   41.6970    8.5926 C.2     1  UNL1        0.2508
     19 O          10.2998   40.9620    7.5722 O.2     1  UNL1       -0.2698
     20 N          11.5175   42.5086    8.8315 N.am    1  UNL1       -0.2644
     21 H          11.5319   43.0365    9.6624 H       1  UNL1        0.1566
     22 C          12.6549   42.6187    7.9683 C.ar    1  UNL1        0.1553
     23 C          13.9864   43.0296    6.3206 C.ar    1  UNL1        0.0588
     24 C          12.6614   43.1650    6.6896 C.ar    1  UNL1        0.0505
     25 C          14.5621   43.4699    5.0187 C.3     1  UNL1        0.0518
     26 N          13.8807   42.1957    8.3298 N.ar    1  UNL1       -0.1543
     27 N          14.6835   42.4456    7.3124 N.ar    1  UNL1       -0.2537
     28 C          16.1113   42.1672    7.3230 C.3     1  UNL1        0.1271
     29 C          16.8102   43.0885    8.3088 C.3     1  UNL1        0.0263
     30 C          17.6515   44.1140    7.5709 C.3     1  UNL1        0.0021
     31 C          17.8414   43.7006    6.1235 C.3     1  UNL1        0.0001
@<TRIPOS>BOND
     1     1     8   ar
     2     1    10   ar
     3     2     4   ar
     4     3     2    1
     5     4     5   ar
     6     5    18    1
     7    18    20   am
     8    28    27    1
     9    28    29    1
    10    29    30    1
    11    30    31    1
    12    24    22   ar
    13    25    23    1
    14     6     7   ar
    15     7    11    1
    16    11    12   ar
    17    13    14   ar
    18    16    14    1
    19    16    17    1
    20     8     9   ar
    21    20    22    1
    22    27    26   ar
    23    27    23   ar
    24    14    15   ar
    25     2     9   ar
    26     4     1   ar
    27     5     6   ar
    28    18    19    2
    29    22    26   ar
    30    23    24   ar
    31     7    10   ar
    32    11    15   ar
    33    12    13   ar
    34    20    21    1
@<TRIPOS>MOLECULE
MolPort-002-787-956 36617993 CSSS00133001352 MCULE-7283028708 PubChem-44824205 ZINC000036617993
 31 34 0 0 0
SMALL
GASTEIGER

@<TRIPOS>ATOM
      1 C          13.2694   42.5346    7.4585 C.ar    1  UNL1        0.2599
      2 C          15.3893   42.3346    7.8128 C.ar    1  UNL1        0.1027
      3 C          16.7406   41.9684    8.3158 C.3     1  UNL1        0.0557
      4 C          14.1715   41.7329    8.1019 C.ar    1  UNL1        0.0771
      5 C          13.7381   40.6321    8.8643 C.ar    1  UNL1        0.0611
      6 C          12.3455   40.4259    8.9323 C.ar    1  UNL1        0.0255
      7 C          11.4500   41.2825    8.2500 C.ar    1  UNL1        0.1039
      8 O          13.8816   43.5045    6.8316 O.2     1  UNL1       -0.3342
      9 N          15.1687   43.4157    7.0277 N.ar    1  UNL1       -0.0795
     10 N          11.9321   42.3292    7.5154 N.ar    1  UNL1       -0.2077
     11 C           9.9995   41.0538    8.3246 C.ar    1  UNL1        0.1201
     12 C           9.2575   40.2489    7.4712 C.ar    1  UNL1        0.0426
     13 C           7.9628   40.3590    7.9525 C.ar    1  UNL1        0.0967
     14 N           7.9808   41.1856    9.0133 N.ar    1  UNL1       -0.2494
     15 N           9.2062   41.6101    9.2566 N.ar    1  UNL1       -0.1677
     16 C           6.8271   41.5368    9.8229 C.3     1  UNL1        0.1276
     17 C           5.5509   41.2564    9.0531 C.3     1  UNL1        0.0284
     18 C          14.6336   39.6845    9.5572 C.2     1  UNL1        0.2508
     19 O          14.7116   39.6823   10.8136 O.2     1  UNL1       -0.2698
     20 N          15.4607   38.8064    8.7809 N.am    1  UNL1       -0.2644
     21 H          15.3900   38.8728    7.8012 H       1  UNL1        0.1566
     22 C          16.3801   37.8415    9.3052 C.ar    1  UNL1        0.1553
     23 C          17.8241   36.7797   10.5068 C.ar    1  UNL1        0.0588
     24 C          17.1300   37.9743   10.4686 C.ar    1  UNL1        0.0505
     25 C          18.7877   36.3829   11.5718 C.3     1  UNL1        0.0518
     26 N          16.6095   36.6596    8.7030 N.ar    1  UNL1       -0.1543
     27 N          17.4985   36.0234    9.4426 N.ar    1  UNL1       -0.2537
     28 C          17.9853   34.6847    9.1471 C.3     1  UNL1        0.1271
     29 C          17.0421   33.9944    8.1762 C.3     1  UNL1        0.0263
     30 C          17.4324   32.5378    8.0033 C.3     1  UNL1        0.0021
     31 C          16.6748   31.6660    8.9871 C.3     1  UNL1        0.0001
@<TRIPOS>BOND
     1     1     8   ar
     2     1    10   ar
     3     2     4   ar
     4     3     2    1
     5     4     5   ar
     6     5    18    1
     7    18    20   am
     8    28    27    1
     9    28    29    1
    10    29    30    1
    11    30    31    1
    12    24    22   ar
    13    25    23    1
    14     6     7   ar
    15     7    11    1
    16    11    12   ar
    17    13    14   ar
    18    16    14    1
    19    16    17    1
    20     8     9   ar
    21    20    22    1
    22    27    26   ar
    23    27    23   ar
    24    14    15   ar
    25     2     9   ar
    26     4     1   ar
    27     5     6   ar
    28    18    19    2
    29    22    26   ar
    30    23    24   ar
    31     7    10   ar
    32    11    15   ar
    33    12    13   ar
    34    20    21    1
@<TRIPOS>MOLECULE
MolPort-002-787-956 36617993 CSSS00133001352 MCULE-7283028708 PubChem-44824205 ZINC000036617993
 31 34 0 0 0
SMALL
GASTEIGER

@<TRIPOS>ATOM
      1 C          16.3860   42.4940    7.8784 C.ar    1  UNL1        0.2599
      2 C          15.2119   43.7094    6.5353 C.ar    1  UNL1        0.1027
      3 C          14.1694   44.2712    5.6349 C.3     1  UNL1        0.0557
      4 C          15.1167   42.6139    7.3834 C.ar    1  UNL1        0.0771
      5 C          14.1137   41.6968    7.7494 C.ar    1  UNL1        0.0611
      6 C          14.4995   40.6622    8.6254 C.ar    1  UNL1        0.0255
      7 C          15.8255   40.5783    9.1114 C.ar    1  UNL1        0.1039
      8 O          17.1584   43.4310    7.3947 O.2     1  UNL1       -0.3342
      9 N          16.4795   44.1845    6.5735 N.ar    1  UNL1       -0.0795
     10 N          16.7530   41.5061    8.7288 N.ar    1  UNL1       -0.2077
     11 C          16.2142   39.4972   10.0288 C.ar    1  UNL1        0.1201
     12 C          15.4576   39.0184   11.0895 C.ar    1  UNL1        0.0426
     13 C          16.2443   38.0156   11.6331 C.ar    1  UNL1        0.0967
     14 N          17.3810   37.9432   10.9179 N.ar    1  UNL1       -0.2494
     15 N          17.3768   38.8281    9.9391 N.ar    1  UNL1       -0.1677
     16 C          18.4570   36.9945   11.1464 C.3     1  UNL1        0.1276
     17 C          18.9921   36.4907    9.8199 C.3     1  UNL1        0.0284
     18 C          12.7074   41.7674    7.3052 C.2     1  UNL1        0.2508
     19 O          12.4268   41.8112    6.0788 O.2     1  UNL1       -0.2698
     20 N          11.6653   41.8469    8.2877 N.am    1  UNL1       -0.2644
     21 H          11.9391   41.8466    9.2334 H       1  UNL1        0.1566
     22 C          10.2616   41.9267    8.0145 C.ar    1  UNL1        0.1553
     23 C           8.2902   41.7095    7.1645 C.ar    1  UNL1        0.0588
     24 C           9.6000   41.3238    6.9505 C.ar    1  UNL1        0.0505
     25 C           7.1336   41.3265    6.3067 C.3     1  UNL1        0.0518
     26 N           9.4101   42.6131    8.7993 N.ar    1  UNL1       -0.1543
     27 N           8.2105   42.4787    8.2656 N.ar    1  UNL1       -0.2537
     28 C           7.0017   43.0462    8.8428 C.3     1  UNL1        0.1271
     29 C           6.7847   44.4522    8.3089 C.3     1  UNL1        0.0263
     30 C           5.3306   44.6541    7.9233 C.3     1  UNL1        0.0021
     31 C           4.4428   43.6816    8.6770 C.3     1  UNL1        0.0001
@<TRIPOS>BOND
     1     1     8   ar
     2     1    10   ar
     3     2     4   ar
     4     3     2    1
     5     4     5   ar
     6     5    18    1
     7    18    20   am
     8    28    27    1
     9    28    29    1
    10    29    30    1
    11    30    31    1
    12    24    22   ar
    13    25    23    1
    14     6     7   ar
    15     7    11    1
    16    11    12   ar
    17    13    14   ar
    18    16    14    1
    19    16    17    1
    20     8     9   ar
    21    20    22    1
    22    27    26   ar
    23    27    23   ar
    24    14    15   ar
    25     2     9   ar
    26     4     1   ar
    27     5     6   ar
    28    18    19    2
    29    22    26   ar
    30    23    24   ar
    31     7    10   ar
    32    11    15   ar
    33    12    13   ar
    34    20    21    1
@<TRIPOS>MOLECULE
MolPort-002-787-956 36617993 CSSS00133001352 MCULE-7283028708 PubChem-44824205 ZINC000036617993
 31 34 0 0 0
SMALL
GASTEIGER

@<TRIPOS>ATOM
      1 C          12.6146   41.4106    7.9702 C.ar    1  UNL1        0.2599
      2 C          14.6137   40.8697    8.5786 C.ar    1  UNL1        0.1027
      3 C          15.8269   40.1964    9.1153 C.3     1  UNL1        0.0557
      4 C          13.3506   40.3305    8.3730 C.ar    1  UNL1        0.0771
      5 C          12.7489   39.0670    8.5224 C.ar    1  UNL1        0.0611
      6 C          11.3676   38.9944    8.2519 C.ar    1  UNL1        0.0255
      7 C          10.6470   40.1394    7.8381 C.ar    1  UNL1        0.1039
      8 O          13.3611   42.4824    7.9192 O.2     1  UNL1       -0.3342
      9 N          14.5794   42.1913    8.2852 N.ar    1  UNL1       -0.0795
     10 N          11.2896   41.3375    7.6998 N.ar    1  UNL1       -0.2077
     11 C           9.2073   40.0496    7.5540 C.ar    1  UNL1        0.1201
     12 C           8.6113   39.2014    6.6309 C.ar    1  UNL1        0.0426
     13 C           7.2601   39.4887    6.7395 C.ar    1  UNL1        0.0967
     14 N           7.1112   40.4497    7.6686 N.ar    1  UNL1       -0.2494
     15 N           8.2787   40.7962    8.1765 N.ar    1  UNL1       -0.1677
     16 C           5.8423   41.0082    8.1021 C.3     1  UNL1        0.1276
     17 C           6.0220   41.7380    9.4192 C.3     1  UNL1        0.0284
     18 C          13.4654   37.8350    8.9080 C.2     1  UNL1        0.2508
     19 O          13.2317   37.2800   10.0135 O.2     1  UNL1       -0.2698
     20 N          14.4758   37.3096    8.0357 N.am    1  UNL1       -0.2644
     21 H          14.6471   37.8012    7.2001 H       1  UNL1        0.1566
     22 C          15.2574   36.1332    8.2730 C.ar    1  UNL1        0.1553
     23 C          16.8442   34.7457    8.7347 C.ar    1  UNL1        0.0588
     24 C          16.6023   36.1020    8.6247 C.ar    1  UNL1        0.0505
     25 C          18.1523   34.1366    9.1063 C.3     1  UNL1        0.0518
     26 N          14.7420   34.8928    8.1847 N.ar    1  UNL1       -0.1543
     27 N          15.7228   34.0541    8.4618 N.ar    1  UNL1       -0.2537
     28 C          15.5605   32.6091    8.5091 C.3     1  UNL1        0.1271
     29 C          15.3718   32.0640    7.1034 C.3     1  UNL1        0.0263
     30 C          16.5326   32.4742    6.2156 C.3     1  UNL1        0.0021
     31 C          17.0257   31.2890    5.4069 C.3     1  UNL1        0.0001
@<TRIPOS>BOND
     1     1     8   ar
     2     1    10   ar
     3     2     4   ar
     4     3     2    1
     5     4     5   ar
     6     5    18    1
     7    18    20   am
     8    28    27    1
     9    28    29    1
    10    29    30    1
    11    30    31    1
    12    24    22   ar
    13    25    23    1
    14     6     7   ar
    15     7    11    1
    16    11    12   ar
    17    13    14   ar
    18    16    14    1
    19    16    17    1
    20     8     9   ar
    21    20    22    1
    22    27    26   ar
    23    27    23   ar
    24    14    15   ar
    25     2     9   ar
    26     4     1   ar
    27     5     6   ar
    28    18    19    2
    29    22    26   ar
    30    23    24   ar
    31     7    10   ar
    32    11    15   ar
    33    12    13   ar
    34    20    21    1
@<TRIPOS>MOLECULE
MolPort-002-787-956 36617993 CSSS00133001352 MCULE-7283028708 PubChem-44824205 ZINC000036617993
 31 34 0 0 0
SMALL
GASTEIGER

@<TRIPOS>ATOM
      1 C          11.1096   40.8785    4.7482 C.ar    1  UNL1        0.2599
      2 C           9.1577   40.1174    5.2678 C.ar    1  UNL1        0.1027
      3 C           7.9153   39.6829    5.9613 C.3     1  UNL1        0.0557
      4 C          10.2050   40.8760    5.7739 C.ar    1  UNL1        0.0771
      5 C          10.4980   41.5188    6.9912 C.ar    1  UNL1        0.0611
      6 C          11.7616   42.1359    7.0861 C.ar    1  UNL1        0.0255
      7 C          12.6654   42.1120    5.9981 C.ar    1  UNL1        0.1039
      8 O          10.6467   40.2091    3.7253 O.2     1  UNL1       -0.3342
      9 N           9.4657   39.7306    4.0071 N.ar    1  UNL1       -0.0795
     10 N          12.3191   41.4812    4.8364 N.ar    1  UNL1       -0.2077
     11 C          13.9787   42.7639    6.1078 C.ar    1  UNL1        0.1201
     12 C          14.4399   43.8042    5.3130 C.ar    1  UNL1        0.0426
     13 C          15.7085   44.0628    5.8070 C.ar    1  UNL1        0.0967
     14 N          15.9444   43.2085    6.8187 N.ar    1  UNL1       -0.2494
     15 N          14.9057   42.4197    7.0186 N.ar    1  UNL1       -0.1677
     16 C          17.1524   43.1757    7.6246 C.3     1  UNL1        0.1276
     17 C          18.1838   44.1268    7.0488 C.3     1  UNL1        0.0284
     18 C           9.5725   41.6095    8.1380 C.2     1  UNL1        0.2508
     19 O           8.4084   42.0636    7.9845 O.2     1  UNL1       -0.2698
     20 N          10.0338   41.2313    9.4426 N.am    1  UNL1       -0.2644
     21 H          10.9641   40.9178    9.5162 H       1  UNL1        0.1566
     22 C           9.2605   41.2695   10.6475 C.ar    1  UNL1        0.1553
     23 C           8.6107   41.2782   12.7052 C.ar    1  UNL1        0.0588
     24 C           9.7593   41.1822   11.9425 C.ar    1  UNL1        0.0505
     25 C           8.5668   41.2500   14.1943 C.3     1  UNL1        0.0518
     26 N           7.9217   41.4095   10.6433 N.ar    1  UNL1       -0.1543
     27 N           7.5361   41.4061   11.9056 N.ar    1  UNL1       -0.2537
     28 C           6.1543   41.5738   12.3284 C.3     1  UNL1        0.1271
     29 C           5.2167   41.1686   11.2033 C.3     1  UNL1        0.0263
     30 C           3.8875   41.8895   11.3356 C.3     1  UNL1        0.0021
     31 C           3.2189   42.0206    9.9800 C.3     1  UNL1        0.0001
@<TRIPOS>BOND
     1     1     8   ar
     2     1    10   ar
     3     2     4   ar
     4     3     2    1
     5     4     5   ar
     6     5    18    1
     7    18    20   am
     8    28    27    1
     9    28    29    1
    10    29    30    1
    11    30    31    1
    12    24    22   ar
    13    25    23    1
    14     6     7   ar
    15     7    11    1
    16    11    12   ar
    17    13    14   ar
    18    16    14    1
    19    16    17    1
    20     8     9   ar
    21    20    22    1
    22    27    26   ar
    23    27    23   ar
    24    14    15   ar
    25     2     9   ar
    26     4     1   ar
    27     5     6   ar
    28    18    19    2
    29    22    26   ar
    30    23    24   ar
    31     7    10   ar
    32    11    15   ar
    33    12    13   ar
    34    20    21    1
@<TRIPOS>MOLECULE
MolPort-002-787-956 36617993 CSSS00133001352 MCULE-7283028708 PubChem-44824205 ZINC000036617993
 31 34 0 0 0
SMALL
GASTEIGER

@<TRIPOS>ATOM
      1 C          10.9104   40.7023    4.9216 C.ar    1  UNL1        0.2599
      2 C           8.9257   39.9017    5.2036 C.ar    1  UNL1        0.1027
      3 C           7.6318   39.4088    5.7475 C.3     1  UNL1        0.0557
      4 C           9.9227   40.6088    5.8629 C.ar    1  UNL1        0.0771
      5 C          10.1086   41.1377    7.1538 C.ar    1  UNL1        0.0611
      6 C          11.3564   41.7407    7.4105 C.ar    1  UNL1        0.0255
      7 C          12.3488   41.8137    6.4049 C.ar    1  UNL1        0.1039
      8 O          10.5388   40.1296    3.8069 O.2     1  UNL1       -0.3342
      9 N           9.3409   39.6302    3.9435 N.ar    1  UNL1       -0.0795
     10 N          12.1049   41.2917    5.1657 N.ar    1  UNL1       -0.2077
     11 C          13.6446   42.4498    6.6837 C.ar    1  UNL1        0.1201
     12 C          14.0556   43.6941    6.2260 C.ar    1  UNL1        0.0426
     13 C          15.3277   43.8397    6.7559 C.ar    1  UNL1        0.0967
     14 N          15.6131   42.7336    7.4657 N.ar    1  UNL1       -0.2494
     15 N          14.6031   41.8848    7.4382 N.ar    1  UNL1       -0.1677
     16 C          16.8408   42.5066    8.2081 C.3     1  UNL1        0.1276
     17 C          17.6537   43.7855    8.2657 C.3     1  UNL1        0.0284
     18 C           9.0894   41.1261    8.2220 C.2     1  UNL1        0.2508
     19 O           9.3530   40.6343    9.3504 O.2     1  UNL1       -0.2698
     20 N           7.7745   41.6263    7.9416 N.am    1  UNL1       -0.2644
     21 H           7.6079   41.9659    7.0327 H       1  UNL1        0.1566
     22 C           6.6827   41.6754    8.8672 C.ar    1  UNL1        0.1553
     23 C           5.3856   41.4196   10.5727 C.ar    1  UNL1        0.0588
     24 C           6.6292   41.0408   10.1033 C.ar    1  UNL1        0.0505
     25 C           4.8082   41.0200   11.8869 C.3     1  UNL1        0.0518
     26 N           5.5602   42.3778    8.6247 N.ar    1  UNL1       -0.1543
     27 N           4.7730   42.2077    9.6704 N.ar    1  UNL1       -0.2537
     28 C           3.4703   42.8396    9.8118 C.3     1  UNL1        0.1271
     29 C           2.5857   42.0025   10.7204 C.3     1  UNL1        0.0263
     30 C           2.3766   42.7045   12.0499 C.3     1  UNL1        0.0021
     31 C           1.0994   42.2198   12.7098 C.3     1  UNL1        0.0001
@<TRIPOS>BOND
     1     1     8   ar
     2     1    10   ar
     3     2     4   ar
     4     3     2    1
     5     4     5   ar
     6     5    18    1
     7    18    20   am
     8    28    27    1
     9    28    29    1
    10    29    30    1
    11    30    31    1
    12    24    22   ar
    13    25    23    1
    14     6     7   ar
    15     7    11    1
    16    11    12   ar
    17    13    14   ar
    18    16    14    1
    19    16    17    1
    20     8     9   ar
    21    20    22    1
    22    27    26   ar
    23    27    23   ar
    24    14    15   ar
    25     2     9   ar
    26     4     1   ar
    27     5     6   ar
    28    18    19    2
    29    22    26   ar
    30    23    24   ar
    31     7    10   ar
    32    11    15   ar
    33    12    13   ar
    34    20    21    1
