@<TRIPOS>MOLECULE
MolPort-020-295-146 MCULE-5196958159 PubChem-110267240
 30 33 0 0 0
SMALL
GASTEIGER

@<TRIPOS>ATOM
      1 C          12.4233   41.8366    7.3695 C.ar    1  UNL1        0.2214
      2 C          10.6633   41.2233    8.8293 C.ar    1  UNL1        0.1031
      3 C          11.5224   40.3791    9.5289 C.ar    1  UNL1        0.0355
      4 C          12.8542   40.2874    9.1095 C.ar    1  UNL1        0.0644
      5 N          11.1254   41.9335    7.7680 N.ar    1  UNL1       -0.2120
      6 N          13.2737   41.0168    8.0423 N.ar    1  UNL1       -0.2179
      7 C          13.8297   39.4021    9.8174 C.3     1  UNL1        0.0564
      8 C          13.8503   39.6912   11.3127 C.3     1  UNL1        0.0087
      9 C          14.8512   38.7702   11.9907 C.3     1  UNL1        0.0178
     10 C          16.2340   38.9476   11.3554 C.3     1  UNL1        0.0724
     11 C          15.2378   39.5514    9.2268 C.3     1  UNL1        0.0783
     12 N          16.2263   38.7002    9.9064 N.3     1  UNL1       -0.2686
     13 C          15.9430   37.2883    9.6435 C.3     1  UNL1        0.1007
     14 C          14.5066   36.9387    9.9023 C.ar    1  UNL1        0.0130
     15 C          13.5771   37.1011    8.8718 C.ar    1  UNL1        0.0959
     16 C          11.8214   36.3267   10.2710 C.ar    1  UNL1        0.0989
     17 C          12.7140   36.1496   11.3296 C.ar    1  UNL1        0.0204
     18 C          14.0620   36.4582   11.1418 C.ar    1  UNL1        0.0002
     19 N          12.2671   36.7948    9.0742 N.ar    1  UNL1       -0.2426
     20 N          12.9135   42.5849    6.2505 N.pl3   1  UNL1       -0.2678
     21 H          12.4072   42.5099    5.4096 H       1  UNL1        0.1565
     22 C          16.3245   43.8807    6.9377 C.ar    1  UNL1        0.1331
     23 C          15.1815   45.3971    5.5271 C.ar    1  UNL1        0.2012
     24 C          14.0689   43.4319    6.2362 C.ar    1  UNL1        0.1389
     25 C          15.1998   43.0485    6.9561 C.ar    1  UNL1        0.0686
     26 N          16.2908   45.0364    6.2237 N.ar    1  UNL1       -0.2091
     27 N          14.0827   44.5987    5.5363 N.ar    1  UNL1       -0.2088
     28 C          17.7739   42.1953    8.1546 C.3     1  UNL1        0.1096
     29 N          17.5108   43.5366    7.6575 N.pl3   1  UNL1       -0.3166
     30 H          18.1798   44.2393    7.8243 H       1  UNL1        0.1482
@<TRIPOS>BOND
     1    28    29    1
     2    23    26   ar
     3    24    27   ar
     4    24    20    1
     5    25    22   ar
     6     1     6   ar
     7     2     5   ar
     8     3     4   ar
     9     7     4    1
    10     7     8    1
    11     8     9    1
    12     9    10    1
    13    10    12    1
    14    11    12    1
    15    11     7    1
    16    13    12    1
    17    13    14    1
    18    15    19   ar
    19    16    17   ar
    20    18    14   ar
    21    29    22    1
    22    20     1    1
    23    22    26   ar
    24    23    27   ar
    25    24    25   ar
    26     1     5   ar
    27     2     3   ar
    28     4     6   ar
    29    14    15   ar
    30    16    19   ar
    31    17    18   ar
    32    29    30    1
    33    20    21    1
@<TRIPOS>MOLECULE
MolPort-020-295-146 MCULE-5196958159 PubChem-110267240
 30 33 0 0 0
SMALL
GASTEIGER

@<TRIPOS>ATOM
      1 C          11.9895   41.5429    7.0038 C.ar    1  UNL1        0.2214
      2 C          10.0735   40.7593    8.1526 C.ar    1  UNL1        0.1031
      3 C          10.8768   39.9895    8.9907 C.ar    1  UNL1        0.0355
      4 C          12.2627   40.0226    8.8002 C.ar    1  UNL1        0.0644
      5 N          10.6400   41.5184    7.1793 N.ar    1  UNL1       -0.2120
      6 N          12.7865   40.7970    7.8139 N.ar    1  UNL1       -0.2179
      7 C          13.1826   39.2223    9.6661 C.3     1  UNL1        0.0564
      8 C          13.1198   39.6894   11.1146 C.3     1  UNL1        0.0087
      9 C          14.0663   38.8500   11.9566 C.3     1  UNL1        0.0178
     10 C          15.4862   38.9399   11.3884 C.3     1  UNL1        0.0724
     11 C          14.6248   39.2895    9.1471 C.3     1  UNL1        0.0783
     12 N          15.5597   38.5196    9.9817 N.3     1  UNL1       -0.2686
     13 C          15.2724   37.0883    9.8736 C.3     1  UNL1        0.1007
     14 C          16.0148   36.4433    8.7400 C.ar    1  UNL1        0.0130
     15 C          17.4113   36.4158    8.7777 C.ar    1  UNL1        0.0959
     16 C          17.4913   35.2791    6.6941 C.ar    1  UNL1        0.0989
     17 C          16.0977   35.2842    6.6132 C.ar    1  UNL1        0.0204
     18 C          15.3587   35.8700    7.6419 C.ar    1  UNL1        0.0002
     19 N          18.1143   35.8402    7.7651 N.ar    1  UNL1       -0.2426
     20 N          12.5898   42.3431    5.9781 N.pl3   1  UNL1       -0.2678
     21 H          12.1567   42.3304    5.0941 H       1  UNL1        0.1565
     22 C          15.9872   43.4737    6.9607 C.ar    1  UNL1        0.1331
     23 C          14.9360   45.1693    5.6896 C.ar    1  UNL1        0.2012
     24 C          13.7588   43.1600    6.1138 C.ar    1  UNL1        0.1389
     25 C          14.8488   42.6702    6.8322 C.ar    1  UNL1        0.0686
     26 N          16.0059   44.7052    6.3867 N.ar    1  UNL1       -0.2091
     27 N          13.8245   44.3999    5.5571 N.ar    1  UNL1       -0.2088
     28 C          17.6609   43.7199    8.8477 C.3     1  UNL1        0.1096
     29 N          17.1331   43.0216    7.6861 N.pl3   1  UNL1       -0.3166
     30 H          17.5855   42.2004    7.3858 H       1  UNL1        0.1482
@<TRIPOS>BOND
     1    28    29    1
     2    23    26   ar
     3    24    27   ar
     4    24    20    1
     5    25    22   ar
     6     1     6   ar
     7     2     5   ar
     8     3     4   ar
     9     7     4    1
    10     7     8    1
    11     8     9    1
    12     9    10    1
    13    10    12    1
    14    11    12    1
    15    11     7    1
    16    13    12    1
    17    13    14    1
    18    15    19   ar
    19    16    17   ar
    20    18    14   ar
    21    29    22    1
    22    20     1    1
    23    22    26   ar
    24    23    27   ar
    25    24    25   ar
    26     1     5   ar
    27     2     3   ar
    28     4     6   ar
    29    14    15   ar
    30    16    19   ar
    31    17    18   ar
    32    29    30    1
    33    20    21    1
@<TRIPOS>MOLECULE
MolPort-020-295-146 MCULE-5196958159 PubChem-110267240
 30 33 0 0 0
SMALL
GASTEIGER

@<TRIPOS>ATOM
      1 C          11.4279   41.5808    6.2723 C.ar    1  UNL1        0.2214
      2 C           9.5573   40.1297    6.2808 C.ar    1  UNL1        0.1031
      3 C          10.2330   39.2450    7.1179 C.ar    1  UNL1        0.0355
      4 C          11.5336   39.5692    7.5196 C.ar    1  UNL1        0.0644
      5 N          10.1624   41.2756    5.8746 N.ar    1  UNL1       -0.2120
      6 N          12.1001   40.7271    7.0892 N.ar    1  UNL1       -0.2179
      7 C          12.3142   38.6651    8.4194 C.3     1  UNL1        0.0564
      8 C          11.3936   37.8878    9.3513 C.3     1  UNL1        0.0087
      9 C          12.2268   36.9831   10.2440 C.3     1  UNL1        0.0178
     10 C          13.2514   37.8180   11.0189 C.3     1  UNL1        0.0724
     11 C          13.3491   39.4555    9.2308 C.3     1  UNL1        0.0783
     12 N          14.1300   38.5973   10.1348 N.3     1  UNL1       -0.2686
     13 C          14.9856   37.6956    9.3618 C.3     1  UNL1        0.1007
     14 C          16.4263   37.7875    9.7723 C.ar    1  UNL1        0.0130
     15 C          17.2657   36.6958    9.5355 C.ar    1  UNL1        0.0959
     16 C          19.1089   37.8461   10.4943 C.ar    1  UNL1        0.0989
     17 C          18.3077   38.9600   10.7515 C.ar    1  UNL1        0.0204
     18 C          16.9607   38.9276   10.3882 C.ar    1  UNL1        0.0002
     19 N          18.5762   36.7463    9.8969 N.ar    1  UNL1       -0.2426
     20 N          12.0685   42.7892    5.8457 N.pl3   1  UNL1       -0.2678
     21 H          11.5364   43.4010    5.2873 H       1  UNL1        0.1565
     22 C          15.5094   42.7675    7.2406 C.ar    1  UNL1        0.1331
     23 C          15.1885   44.7443    5.9817 C.ar    1  UNL1        0.2012
     24 C          13.4081   43.1938    6.1524 C.ar    1  UNL1        0.1389
     25 C          14.2021   42.3657    6.9450 C.ar    1  UNL1        0.0686
     26 N          15.9738   43.9475    6.7526 N.ar    1  UNL1       -0.2091
     27 N          13.9175   44.3665    5.6869 N.ar    1  UNL1       -0.2088
     28 C          17.4900   42.4972    8.7984 C.3     1  UNL1        0.1096
     29 N          16.3670   41.9574    8.0482 N.pl3   1  UNL1       -0.3166
     30 H          16.1893   40.9904    8.0988 H       1  UNL1        0.1482
@<TRIPOS>BOND
     1    28    29    1
     2    23    26   ar
     3    24    27   ar
     4    24    20    1
     5    25    22   ar
     6     1     6   ar
     7     2     5   ar
     8     3     4   ar
     9     7     4    1
    10     7     8    1
    11     8     9    1
    12     9    10    1
    13    10    12    1
    14    11    12    1
    15    11     7    1
    16    13    12    1
    17    13    14    1
    18    15    19   ar
    19    16    17   ar
    20    18    14   ar
    21    29    22    1
    22    20     1    1
    23    22    26   ar
    24    23    27   ar
    25    24    25   ar
    26     1     5   ar
    27     2     3   ar
    28     4     6   ar
    29    14    15   ar
    30    16    19   ar
    31    17    18   ar
    32    29    30    1
    33    20    21    1
@<TRIPOS>MOLECULE
MolPort-020-295-146 MCULE-5196958159 PubChem-110267240
 30 33 0 0 0
SMALL
GASTEIGER

@<TRIPOS>ATOM
      1 C          16.7626   40.1320    9.9101 C.ar    1  UNL1        0.2214
      2 C          16.5638   38.7284   11.8061 C.ar    1  UNL1        0.1031
      3 C          15.1875   38.6405   11.6110 C.ar    1  UNL1        0.0355
      4 C          14.6223   39.3279   10.5311 C.ar    1  UNL1        0.0644
      5 N          17.3235   39.4680   10.9576 N.ar    1  UNL1       -0.2120
      6 N          15.4207   40.0559    9.7068 N.ar    1  UNL1       -0.2179
      7 C          13.1521   39.2741   10.2630 C.3     1  UNL1        0.0564
      8 C          12.7245   37.8815    9.8183 C.3     1  UNL1        0.0087
      9 C          11.2271   37.8724    9.5593 C.3     1  UNL1        0.0178
     10 C          10.8732   38.9384    8.5174 C.3     1  UNL1        0.0724
     11 C          12.7454   40.3165    9.2132 C.3     1  UNL1        0.0783
     12 N          11.3048   40.2854    8.9180 N.3     1  UNL1       -0.2686
     13 C          10.5401   40.7269   10.0855 C.3     1  UNL1        0.1007
     14 C           9.7651   41.9834    9.8157 C.ar    1  UNL1        0.0130
     15 C           8.7860   41.9708    8.8188 C.ar    1  UNL1        0.0959
     16 C           8.2730   44.2530    9.2290 C.ar    1  UNL1        0.0989
     17 C           9.2414   44.3127   10.2327 C.ar    1  UNL1        0.0204
     18 C           9.9896   43.1715   10.5249 C.ar    1  UNL1        0.0002
     19 N           8.0669   43.0935    8.5484 N.ar    1  UNL1       -0.2426
     20 N          17.5617   40.9127    9.0131 N.pl3   1  UNL1       -0.2678
     21 H          18.4813   40.6006    8.8510 H       1  UNL1        0.1565
     22 C          15.4258   43.4100    7.2846 C.ar    1  UNL1        0.1331
     23 C          17.6455   44.2206    7.3925 C.ar    1  UNL1        0.2012
     24 C          17.1529   42.1033    8.3292 C.ar    1  UNL1        0.1389
     25 C          15.8179   42.2445    7.9524 C.ar    1  UNL1        0.0686
     26 N          16.3479   44.3722    7.0195 N.ar    1  UNL1       -0.2091
     27 N          18.0398   43.0943    8.0414 N.ar    1  UNL1       -0.2088
     28 C          13.2833   42.5751    6.2192 C.3     1  UNL1        0.1096
     29 N          14.0703   43.6072    6.8756 N.pl3   1  UNL1       -0.3166
     30 H          13.6504   44.4813    7.0460 H       1  UNL1        0.1482
@<TRIPOS>BOND
     1    28    29    1
     2    23    26   ar
     3    24    27   ar
     4    24    20    1
     5    25    22   ar
     6     1     6   ar
     7     2     5   ar
     8     3     4   ar
     9     7     4    1
    10     7     8    1
    11     8     9    1
    12     9    10    1
    13    10    12    1
    14    11    12    1
    15    11     7    1
    16    13    12    1
    17    13    14    1
    18    15    19   ar
    19    16    17   ar
    20    18    14   ar
    21    29    22    1
    22    20     1    1
    23    22    26   ar
    24    23    27   ar
    25    24    25   ar
    26     1     5   ar
    27     2     3   ar
    28     4     6   ar
    29    14    15   ar
    30    16    19   ar
    31    17    18   ar
    32    29    30    1
    33    20    21    1
@<TRIPOS>MOLECULE
MolPort-020-295-146 MCULE-5196958159 PubChem-110267240
 30 33 0 0 0
SMALL
GASTEIGER

@<TRIPOS>ATOM
      1 C          12.1431   41.5000    6.4710 C.ar    1  UNL1        0.2214
      2 C          10.1774   40.8981    5.2969 C.ar    1  UNL1        0.1031
      3 C           9.3925   41.3670    6.3476 C.ar    1  UNL1        0.0355
      4 C          10.0330   41.9070    7.4684 C.ar    1  UNL1        0.0644
      5 N          11.5311   40.9721    5.3758 N.ar    1  UNL1       -0.2120
      6 N          11.3904   41.9617    7.5045 N.ar    1  UNL1       -0.2179
      7 C           9.2503   42.4305    8.6302 C.3     1  UNL1        0.0564
      8 C          10.1710   42.9951    9.7043 C.3     1  UNL1        0.0087
      9 C           9.3355   43.5160   10.8619 C.3     1  UNL1        0.0178
     10 C           8.4440   42.3948   11.4054 C.3     1  UNL1        0.0724
     11 C           8.3476   41.3402    9.2221 C.3     1  UNL1        0.0783
     12 N           7.5687   41.8188   10.3744 N.3     1  UNL1       -0.2686
     13 C           6.5863   42.8141    9.9419 C.3     1  UNL1        0.1007
     14 C           5.1935   42.2569    9.8986 C.ar    1  UNL1        0.0130
     15 C           4.1783   43.0237    9.3208 C.ar    1  UNL1        0.0959
     16 C           2.5784   41.3265    9.7679 C.ar    1  UNL1        0.0989
     17 C           3.5597   40.5260   10.3553 C.ar    1  UNL1        0.0204
     18 C           4.8722   40.9960   10.4200 C.ar    1  UNL1        0.0002
     19 N           2.9047   42.5483    9.2671 N.ar    1  UNL1       -0.2426
     20 N          13.5710   41.5796    6.5567 N.pl3   1  UNL1       -0.2678
     21 H          14.0544   40.7366    6.7140 H       1  UNL1        0.1565
     22 C          16.3316   44.0191    7.0193 C.ar    1  UNL1        0.1331
     23 C          14.7265   44.9265    5.5375 C.ar    1  UNL1        0.2012
     24 C          14.3638   42.7667    6.4357 C.ar    1  UNL1        0.1389
     25 C          15.5626   42.8566    7.1422 C.ar    1  UNL1        0.0686
     26 N          15.8969   45.0282    6.2199 N.ar    1  UNL1       -0.2091
     27 N          13.9700   43.8037    5.6477 N.ar    1  UNL1       -0.2088
     28 C          17.6762   44.0563    9.1672 C.3     1  UNL1        0.1096
     29 N          17.5688   44.1646    7.7208 N.pl3   1  UNL1       -0.3166
     30 H          18.3851   44.3464    7.2012 H       1  UNL1        0.1482
@<TRIPOS>BOND
     1    28    29    1
     2    23    26   ar
     3    24    27   ar
     4    24    20    1
     5    25    22   ar
     6     1     6   ar
     7     2     5   ar
     8     3     4   ar
     9     7     4    1
    10     7     8    1
    11     8     9    1
    12     9    10    1
    13    10    12    1
    14    11    12    1
    15    11     7    1
    16    13    12    1
    17    13    14    1
    18    15    19   ar
    19    16    17   ar
    20    18    14   ar
    21    29    22    1
    22    20     1    1
    23    22    26   ar
    24    23    27   ar
    25    24    25   ar
    26     1     5   ar
    27     2     3   ar
    28     4     6   ar
    29    14    15   ar
    30    16    19   ar
    31    17    18   ar
    32    29    30    1
    33    20    21    1
@<TRIPOS>MOLECULE
MolPort-020-295-146 MCULE-5196958159 PubChem-110267240
 30 33 0 0 0
SMALL
GASTEIGER

@<TRIPOS>ATOM
      1 C           8.1794   42.7315    9.8962 C.ar    1  UNL1        0.2214
      2 C           8.7952   41.5613   11.8598 C.ar    1  UNL1        0.1031
      3 C           9.8784   40.9919   11.1945 C.ar    1  UNL1        0.0355
      4 C          10.0840   41.3232    9.8507 C.ar    1  UNL1        0.0644
      5 N           7.9691   42.4162   11.2035 N.ar    1  UNL1       -0.2120
      6 N           9.2323   42.1837    9.2335 N.ar    1  UNL1       -0.2179
      7 C          11.2289   40.7496    9.0782 C.3     1  UNL1        0.0564
      8 C          11.3831   39.2586    9.3488 C.3     1  UNL1        0.0087
      9 C          12.5539   38.7185    8.5443 C.3     1  UNL1        0.0178
     10 C          13.8268   39.4969    8.8921 C.3     1  UNL1        0.0724
     11 C          12.5351   41.4871    9.4006 C.3     1  UNL1        0.0783
     12 N          13.6856   40.9422    8.6639 N.3     1  UNL1       -0.2686
     13 C          13.5408   41.2086    7.2318 C.3     1  UNL1        0.1007
     14 C          14.1965   42.4953    6.8236 C.ar    1  UNL1        0.0130
     15 C          13.5001   43.3710    5.9865 C.ar    1  UNL1        0.0959
     16 C          15.3149   44.9026    6.0018 C.ar    1  UNL1        0.0989
     17 C          16.0484   44.0586    6.8376 C.ar    1  UNL1        0.0204
     18 C          15.4844   42.8500    7.2484 C.ar    1  UNL1        0.0002
     19 N          14.0667   44.5447    5.5967 N.ar    1  UNL1       -0.2426
     20 N           7.3097   43.6335    9.2014 N.pl3   1  UNL1       -0.2678
     21 H           7.7328   44.3983    8.7484 H       1  UNL1        0.1565
     22 C           3.8549   42.3112    9.5212 C.ar    1  UNL1        0.1331
     23 C           3.7925   44.4033    8.4190 C.ar    1  UNL1        0.2012
     24 C           5.8842   43.5307    9.1017 C.ar    1  UNL1        0.1389
     25 C           5.2474   42.4048    9.6224 C.ar    1  UNL1        0.0686
     26 N           3.1582   43.3121    8.9220 N.ar    1  UNL1       -0.2091
     27 N           5.1438   44.5071    8.5103 N.ar    1  UNL1       -0.2088
     28 C           3.7640   40.2020   10.9233 C.3     1  UNL1        0.1096
     29 N           3.1506   41.1795   10.0380 N.pl3   1  UNL1       -0.3166
     30 H           2.2078   41.0562    9.7830 H       1  UNL1        0.1482
@<TRIPOS>BOND
     1    28    29    1
     2    23    26   ar
     3    24    27   ar
     4    24    20    1
     5    25    22   ar
     6     1     6   ar
     7     2     5   ar
     8     3     4   ar
     9     7     4    1
    10     7     8    1
    11     8     9    1
    12     9    10    1
    13    10    12    1
    14    11    12    1
    15    11     7    1
    16    13    12    1
    17    13    14    1
    18    15    19   ar
    19    16    17   ar
    20    18    14   ar
    21    29    22    1
    22    20     1    1
    23    22    26   ar
    24    23    27   ar
    25    24    25   ar
    26     1     5   ar
    27     2     3   ar
    28     4     6   ar
    29    14    15   ar
    30    16    19   ar
    31    17    18   ar
    32    29    30    1
    33    20    21    1
@<TRIPOS>MOLECULE
MolPort-020-295-146 MCULE-5196958159 PubChem-110267240
 30 33 0 0 0
SMALL
GASTEIGER

@<TRIPOS>ATOM
      1 C          14.8526   40.1072    9.7101 C.ar    1  UNL1        0.2214
      2 C          14.0813   38.7958   11.5240 C.ar    1  UNL1        0.1031
      3 C          12.8375   39.4195   11.4609 C.ar    1  UNL1        0.0355
      4 C          12.6345   40.4044   10.4878 C.ar    1  UNL1        0.0644
      5 N          15.0618   39.1480   10.6529 N.ar    1  UNL1       -0.2120
      6 N          13.6439   40.7248    9.6362 N.ar    1  UNL1       -0.2179
      7 C          11.3226   41.1114   10.3636 C.3     1  UNL1        0.0564
      8 C          10.5439   41.0600   11.6717 C.3     1  UNL1        0.0087
      9 C           9.2221   41.7901   11.5007 C.3     1  UNL1        0.0178
     10 C           8.4331   41.1725   10.3417 C.3     1  UNL1        0.0724
     11 C          10.4849   40.5212    9.2218 C.3     1  UNL1        0.0783
     12 N           9.1819   41.1880    9.0767 N.3     1  UNL1       -0.2686
     13 C           9.3681   42.5678    8.6248 C.3     1  UNL1        0.1007
     14 C           8.0802   43.2010    8.1856 C.ar    1  UNL1        0.0130
     15 C           7.5175   44.2044    8.9786 C.ar    1  UNL1        0.0959
     16 C           5.6975   44.4392    7.4711 C.ar    1  UNL1        0.0989
     17 C           6.2219   43.4407    6.6484 C.ar    1  UNL1        0.0204
     18 C           7.4185   42.8202    7.0099 C.ar    1  UNL1        0.0002
     19 N           6.3501   44.7975    8.6095 N.ar    1  UNL1       -0.2426
     20 N          15.8851   40.4804    8.7897 N.pl3   1  UNL1       -0.2678
     21 H          16.3772   39.7479    8.3531 H       1  UNL1        0.1565
     22 C          15.8553   43.8495    7.2294 C.ar    1  UNL1        0.1331
     23 C          17.7590   43.6482    8.6191 C.ar    1  UNL1        0.2012
     24 C          16.2712   41.8157    8.4427 C.ar    1  UNL1        0.1389
     25 C          15.4720   42.5459    7.5639 C.ar    1  UNL1        0.0686
     26 N          16.9900   44.3718    7.7642 N.ar    1  UNL1       -0.2091
     27 N          17.3987   42.3816    8.9524 N.ar    1  UNL1       -0.2088
     28 C          14.3012   44.0741    5.2402 C.3     1  UNL1        0.1096
     29 N          15.0734   44.6431    6.3336 N.pl3   1  UNL1       -0.3166
     30 H          15.0568   45.6190    6.4627 H       1  UNL1        0.1482
@<TRIPOS>BOND
     1    28    29    1
     2    23    26   ar
     3    24    27   ar
     4    24    20    1
     5    25    22   ar
     6     1     6   ar
     7     2     5   ar
     8     3     4   ar
     9     7     4    1
    10     7     8    1
    11     8     9    1
    12     9    10    1
    13    10    12    1
    14    11    12    1
    15    11     7    1
    16    13    12    1
    17    13    14    1
    18    15    19   ar
    19    16    17   ar
    20    18    14   ar
    21    29    22    1
    22    20     1    1
    23    22    26   ar
    24    23    27   ar
    25    24    25   ar
    26     1     5   ar
    27     2     3   ar
    28     4     6   ar
    29    14    15   ar
    30    16    19   ar
    31    17    18   ar
    32    29    30    1
    33    20    21    1
@<TRIPOS>MOLECULE
MolPort-020-295-146 MCULE-5196958159 PubChem-110267240
 30 33 0 0 0
SMALL
GASTEIGER

@<TRIPOS>ATOM
      1 C          14.3950   40.2898    9.5451 C.ar    1  UNL1        0.2214
      2 C          13.5524   39.1870   11.4631 C.ar    1  UNL1        0.1031
      3 C          12.3341   39.8473   11.3215 C.ar    1  UNL1        0.0355
      4 C          12.1806   40.7415   10.2562 C.ar    1  UNL1        0.0644
      5 N          14.5561   39.4180   10.5780 N.ar    1  UNL1       -0.2120
      6 N          13.2118   40.9417    9.3939 N.ar    1  UNL1       -0.2179
      7 C          10.8983   41.4813   10.0448 C.3     1  UNL1        0.0564
      8 C          11.1532   42.9595    9.7804 C.3     1  UNL1        0.0087
      9 C           9.8264   43.6703    9.5702 C.3     1  UNL1        0.0178
     10 C           8.9228   43.4555   10.7887 C.3     1  UNL1        0.0724
     11 C           9.9591   41.3095   11.2458 C.3     1  UNL1        0.0783
     12 N           8.6897   42.0327   11.0755 N.3     1  UNL1       -0.2686
     13 C           7.9050   41.4291    9.9972 C.3     1  UNL1        0.1007
     14 C           6.4414   41.7383   10.1172 C.ar    1  UNL1        0.0130
     15 C           5.7913   42.3503    9.0423 C.ar    1  UNL1        0.0959
     16 C           3.7355   42.3599   10.2311 C.ar    1  UNL1        0.0989
     17 C           4.3431   41.7496   11.3299 C.ar    1  UNL1        0.0204
     18 C           5.7023   41.4390   11.2701 C.ar    1  UNL1        0.0002
     19 N           4.4655   42.6454    9.1196 N.ar    1  UNL1       -0.2426
     20 N          15.4521   40.5350    8.6096 N.pl3   1  UNL1       -0.2678
     21 H          15.8072   39.7546    8.1258 H       1  UNL1        0.1565
     22 C          15.9540   43.9200    7.1688 C.ar    1  UNL1        0.1331
     23 C          17.7960   43.3771    8.5502 C.ar    1  UNL1        0.2012
     24 C          16.0426   41.8053    8.3097 C.ar    1  UNL1        0.1389
     25 C          15.3712   42.6810    7.4574 C.ar    1  UNL1        0.0686
     26 N          17.1533   44.2408    7.7214 N.ar    1  UNL1       -0.2091
     27 N          17.2416   42.1711    8.8387 N.ar    1  UNL1       -0.2088
     28 C          14.4016   44.4552    5.2385 C.3     1  UNL1        0.1096
     29 N          15.3095   44.8562    6.3017 N.pl3   1  UNL1       -0.3166
     30 H          15.4883   45.8158    6.4301 H       1  UNL1        0.1482
@<TRIPOS>BOND
     1    28    29    1
     2    23    26   ar
     3    24    27   ar
     4    24    20    1
     5    25    22   ar
     6     1     6   ar
     7     2     5   ar
     8     3     4   ar
     9     7     4    1
    10     7     8    1
    11     8     9    1
    12     9    10    1
    13    10    12    1
    14    11    12    1
    15    11     7    1
    16    13    12    1
    17    13    14    1
    18    15    19   ar
    19    16    17   ar
    20    18    14   ar
    21    29    22    1
    22    20     1    1
    23    22    26   ar
    24    23    27   ar
    25    24    25   ar
    26     1     5   ar
    27     2     3   ar
    28     4     6   ar
    29    14    15   ar
    30    16    19   ar
    31    17    18   ar
    32    29    30    1
    33    20    21    1
@<TRIPOS>MOLECULE
MolPort-020-295-146 MCULE-5196958159 PubChem-110267240
 30 33 0 0 0
SMALL
GASTEIGER

@<TRIPOS>ATOM
      1 C          12.7314   42.3538    6.2911 C.ar    1  UNL1        0.2214
      2 C          14.8835   43.2586    6.6846 C.ar    1  UNL1        0.1031
      3 C          15.1401   42.2672    7.6289 C.ar    1  UNL1        0.0355
      4 C          14.1460   41.3159    7.8833 C.ar    1  UNL1        0.0644
      5 N          13.6908   43.2849    6.0357 N.ar    1  UNL1       -0.2120
      6 N          12.9672   41.3802    7.2100 N.ar    1  UNL1       -0.2179
      7 C          14.3571   40.2236    8.8826 C.3     1  UNL1        0.0564
      8 C          13.3554   40.3227   10.0258 C.3     1  UNL1        0.0087
      9 C          13.6049   39.1953   11.0139 C.3     1  UNL1        0.0178
     10 C          15.0514   39.2540   11.5153 C.3     1  UNL1        0.0724
     11 C          15.7911   40.2457    9.4277 C.3     1  UNL1        0.0783
     12 N          16.0316   39.1885   10.4217 N.3     1  UNL1       -0.2686
     13 C          15.9780   37.8726    9.7827 C.3     1  UNL1        0.1007
     14 C          14.7086   37.1376   10.1002 C.ar    1  UNL1        0.0130
     15 C          13.7918   36.9006    9.0727 C.ar    1  UNL1        0.0959
     16 C          12.3250   35.7905   10.5748 C.ar    1  UNL1        0.0989
     17 C          13.2105   36.0054   11.6324 C.ar    1  UNL1        0.0204
     18 C          14.4066   36.6827   11.3912 C.ar    1  UNL1        0.0002
     19 N          12.6309   36.2386    9.3275 N.ar    1  UNL1       -0.2426
     20 N          11.4725   42.3790    5.6076 N.pl3   1  UNL1       -0.2678
     21 H          11.1565   43.2559    5.2906 H       1  UNL1        0.1565
     22 C           8.7133   39.9121    5.9024 C.ar    1  UNL1        0.1331
     23 C          10.0725   39.3474    4.0505 C.ar    1  UNL1        0.2012
     24 C          10.6288   41.2524    5.3406 C.ar    1  UNL1        0.1389
     25 C           9.5329   41.0144    6.1691 C.ar    1  UNL1        0.0686
     26 N           9.0009   39.1031    4.8493 N.ar    1  UNL1       -0.2091
     27 N          10.8765   40.4139    4.2981 N.ar    1  UNL1       -0.2088
     28 C           6.2073   39.8008    6.2630 C.3     1  UNL1        0.1096
     29 N           7.5766   39.6212    6.7191 N.pl3   1  UNL1       -0.3166
     30 H           7.7276   39.2840    7.6317 H       1  UNL1        0.1482
@<TRIPOS>BOND
     1    28    29    1
     2    23    26   ar
     3    24    27   ar
     4    24    20    1
     5    25    22   ar
     6     1     6   ar
     7     2     5   ar
     8     3     4   ar
     9     7     4    1
    10     7     8    1
    11     8     9    1
    12     9    10    1
    13    10    12    1
    14    11    12    1
    15    11     7    1
    16    13    12    1
    17    13    14    1
    18    15    19   ar
    19    16    17   ar
    20    18    14   ar
    21    29    22    1
    22    20     1    1
    23    22    26   ar
    24    23    27   ar
    25    24    25   ar
    26     1     5   ar
    27     2     3   ar
    28     4     6   ar
    29    14    15   ar
    30    16    19   ar
    31    17    18   ar
    32    29    30    1
    33    20    21    1
@<TRIPOS>MOLECULE
MolPort-020-295-146 MCULE-5196958159 PubChem-110267240
 30 33 0 0 0
SMALL
GASTEIGER

@<TRIPOS>ATOM
      1 C          14.5348   40.4017    9.5449 C.ar    1  UNL1        0.2214
      2 C          13.4291   39.4120   11.3896 C.ar    1  UNL1        0.1031
      3 C          12.2332   40.0183   11.0126 C.ar    1  UNL1        0.0355
      4 C          12.2271   40.8276    9.8711 C.ar    1  UNL1        0.0644
      5 N          14.5528   39.6126   10.6538 N.ar    1  UNL1       -0.2120
      6 N          13.3751   41.0002    9.1645 N.ar    1  UNL1       -0.2179
      7 C          10.9769   41.5061    9.4095 C.3     1  UNL1        0.0564
      8 C          10.3927   42.3878   10.5056 C.3     1  UNL1        0.0087
      9 C           9.1279   43.0571    9.9938 C.3     1  UNL1        0.0178
     10 C           8.1304   41.9934    9.5239 C.3     1  UNL1        0.0724
     11 C           9.9362   40.4818    8.9389 C.3     1  UNL1        0.0783
     12 N           8.6883   41.1149    8.4857 N.3     1  UNL1       -0.2686
     13 C           8.9259   41.8800    7.2605 C.3     1  UNL1        0.1007
     14 C           9.2049   40.9939    6.0818 C.ar    1  UNL1        0.0130
     15 C           8.2228   40.0886    5.6716 C.ar    1  UNL1        0.0959
     16 C           9.6150   39.3029    3.9154 C.ar    1  UNL1        0.0989
     17 C          10.6252   40.1907    4.2899 C.ar    1  UNL1        0.0204
     18 C          10.4167   41.0385    5.3786 C.ar    1  UNL1        0.0002
     19 N           8.4447   39.2701    4.6078 N.ar    1  UNL1       -0.2426
     20 N          15.7187   40.6147    8.7666 N.pl3   1  UNL1       -0.2678
     21 H          16.2198   39.8132    8.4916 H       1  UNL1        0.1565
     22 C          15.9990   43.9240    7.1064 C.ar    1  UNL1        0.1331
     23 C          17.9632   43.5078    8.3572 C.ar    1  UNL1        0.2012
     24 C          16.2442   41.8806    8.3497 C.ar    1  UNL1        0.1389
     25 C          15.4792   42.6890    7.5097 C.ar    1  UNL1        0.0686
     26 N          17.2291   44.3062    7.5389 N.ar    1  UNL1       -0.2091
     27 N          17.4709   42.3064    8.7563 N.ar    1  UNL1       -0.2088
     28 C          14.1177   44.3455    5.4616 C.3     1  UNL1        0.1096
     29 N          15.2579   44.7926    6.2462 N.pl3   1  UNL1       -0.3166
     30 H          15.5316   45.7361    6.1820 H       1  UNL1        0.1482
@<TRIPOS>BOND
     1    28    29    1
     2    23    26   ar
     3    24    27   ar
     4    24    20    1
     5    25    22   ar
     6     1     6   ar
     7     2     5   ar
     8     3     4   ar
     9     7     4    1
    10     7     8    1
    11     8     9    1
    12     9    10    1
    13    10    12    1
    14    11    12    1
    15    11     7    1
    16    13    12    1
    17    13    14    1
    18    15    19   ar
    19    16    17   ar
    20    18    14   ar
    21    29    22    1
    22    20     1    1
    23    22    26   ar
    24    23    27   ar
    25    24    25   ar
    26     1     5   ar
    27     2     3   ar
    28     4     6   ar
    29    14    15   ar
    30    16    19   ar
    31    17    18   ar
    32    29    30    1
    33    20    21    1
