@<TRIPOS>MOLECULE
MolPort-039-210-383 CSSS03436976271 MCULE-3826200929 PubChem-121016978
 24 26 0 0 0
SMALL
GASTEIGER

@<TRIPOS>ATOM
      1 C           9.8138   41.8504    7.1098 C.ar    1  UNL1        0.0905
      2 C           9.3694   42.0726    8.3931 C.ar    1  UNL1        0.1114
      3 C           8.7337   41.9900    6.2566 C.ar    1  UNL1        0.1363
      4 N           8.0584   42.3498    8.2799 N.ar    1  UNL1       -0.2456
      5 N           7.6653   42.2975    7.0168 N.ar    1  UNL1       -0.1662
      6 O          12.2451   42.8816    8.3218 O.2     1  UNL1       -0.2729
      7 C          12.3308   42.0776    7.3554 C.2     1  UNL1        0.2469
      8 N          11.1590   41.5140    6.7574 N.am    1  UNL1       -0.2800
      9 H          11.2887   40.8430    6.0488 H       1  UNL1        0.1550
     10 C          13.6725   41.7029    6.8242 C.3     1  UNL1        0.1859
     11 O          16.2166   41.8793    8.3599 O.2     1  UNL1       -0.2744
     12 O          13.6366   44.3001    5.3806 O.2     1  UNL1       -0.2744
     13 C          15.8418   42.8191    7.6101 C.2     1  UNL1        0.2322
     14 C          16.6644   44.0291    7.3243 C.3     1  UNL1        0.0953
     15 C          15.8123   44.8288    6.3230 C.3     1  UNL1        0.0953
     16 C          14.5840   43.9992    6.1545 C.2     1  UNL1        0.2322
     17 N          14.5949   42.8251    6.9422 N.am    1  UNL1       -0.2206
     18 C           7.1715   42.6567    9.3890 C.3     1  UNL1        0.1569
     19 O           5.5467   40.9519   10.0408 O.3     1  UNL1       -0.3542
     20 C           5.7938   42.0406    9.1618 C.3     1  UNL1        0.1395
     21 C           4.7048   43.1285    9.1890 C.3     1  UNL1        0.0317
     22 C           3.4455   42.6126    9.8799 C.3     1  UNL1        0.0051
     23 C           3.7768   42.0602   11.2673 C.3     1  UNL1        0.0322
     24 C           5.1848   41.4554   11.3074 C.3     1  UNL1        0.1421
@<TRIPOS>BOND
     1     7     8   am
     2    10     7    1
     3    10    17    1
     4    14    13    1
     5    14    15    1
     6    15    16    1
     7    16    17   am
     8     2     4   ar
     9    18     4    1
    10    20    18    1
    11    20    21    1
    12    20    19    1
    13    21    22    1
    14    22    23    1
    15    23    24    1
    16    24    19    1
    17     3     1   ar
    18    17    13   am
    19     8     1    1
    20     4     5   ar
    21     7     6    2
    22    13    11    2
    23    16    12    2
    24     1     2   ar
    25     3     5   ar
    26     8     9    1
@<TRIPOS>MOLECULE
MolPort-039-210-383 CSSS03436976271 MCULE-3826200929 PubChem-121016978
 24 26 0 0 0
SMALL
GASTEIGER

@<TRIPOS>ATOM
      1 C          10.6865   42.5919    9.3828 C.ar    1  UNL1        0.0905
      2 C           9.5001   41.9256    9.1780 C.ar    1  UNL1        0.1114
      3 C          10.4369   43.6493   10.2393 C.ar    1  UNL1        0.1363
      4 N           8.5851   42.5792    9.9155 N.ar    1  UNL1       -0.2456
      5 N           9.1260   43.6099   10.5461 N.ar    1  UNL1       -0.1662
      6 O          11.2296   42.2700    6.5465 O.2     1  UNL1       -0.2729
      7 C          12.1498   42.0521    7.3792 C.2     1  UNL1        0.2469
      8 N          11.9361   42.2395    8.7818 N.am    1  UNL1       -0.2800
      9 H          12.7088   42.1164    9.3794 H       1  UNL1        0.1550
     10 C          13.4850   41.5933    6.9001 C.3     1  UNL1        0.1859
     11 O          16.0395   41.6095    8.4285 O.2     1  UNL1       -0.2744
     12 O          13.5815   44.2132    5.5008 O.2     1  UNL1       -0.2744
     13 C          15.7124   42.5803    7.6963 C.2     1  UNL1        0.2322
     14 C          16.5968   43.7502    7.4278 C.3     1  UNL1        0.0953
     15 C          15.7849   44.6105    6.4435 C.3     1  UNL1        0.0953
     16 C          14.5141   43.8497    6.2658 C.2     1  UNL1        0.2322
     17 N          14.4655   42.6634    7.0334 N.am    1  UNL1       -0.2206
     18 C           7.1799   42.2225   10.0100 C.3     1  UNL1        0.1569
     19 O           5.1733   41.9045    8.6523 O.3     1  UNL1       -0.3542
     20 C           6.4669   42.4910    8.6876 C.3     1  UNL1        0.1395
     21 C           6.4828   43.9956    8.3617 C.3     1  UNL1        0.0317
     22 C           5.1623   44.4228    7.7266 C.3     1  UNL1        0.0051
     23 C           3.9805   44.0117    8.6064 C.3     1  UNL1        0.0322
     24 C           4.2780   42.7195    9.3755 C.3     1  UNL1        0.1421
@<TRIPOS>BOND
     1     7     8   am
     2    10     7    1
     3    10    17    1
     4    14    13    1
     5    14    15    1
     6    15    16    1
     7    16    17   am
     8     2     4   ar
     9    18     4    1
    10    20    18    1
    11    20    21    1
    12    20    19    1
    13    21    22    1
    14    22    23    1
    15    23    24    1
    16    24    19    1
    17     3     1   ar
    18    17    13   am
    19     8     1    1
    20     4     5   ar
    21     7     6    2
    22    13    11    2
    23    16    12    2
    24     1     2   ar
    25     3     5   ar
    26     8     9    1
@<TRIPOS>MOLECULE
MolPort-039-210-383 CSSS03436976271 MCULE-3826200929 PubChem-121016978
 24 26 0 0 0
SMALL
GASTEIGER

@<TRIPOS>ATOM
      1 C          11.1079   41.1874    6.5358 C.ar    1  UNL1        0.0905
      2 C          10.3578   41.8844    7.4553 C.ar    1  UNL1        0.1114
      3 C          10.4133   40.0372    6.2062 C.ar    1  UNL1        0.1363
      4 N           9.2432   41.1554    7.6413 N.ar    1  UNL1       -0.2456
      5 N           9.2656   40.0516    6.9108 N.ar    1  UNL1       -0.1662
      6 O          12.6863   43.4470    7.4556 O.2     1  UNL1       -0.2729
      7 C          13.1137   42.7440    6.5013 C.2     1  UNL1        0.2469
      8 N          12.3877   41.5979    6.0454 N.am    1  UNL1       -0.2800
      9 H          12.8009   41.0496    5.3399 H       1  UNL1        0.1550
     10 C          14.3966   43.1069    5.8342 C.3     1  UNL1        0.1859
     11 O          15.1961   41.2643    8.0313 O.2     1  UNL1       -0.2744
     12 O          16.4771   45.2216    6.0086 O.2     1  UNL1       -0.2744
     13 C          15.8526   42.3109    7.7875 C.2     1  UNL1        0.2322
     14 C          17.1299   42.6653    8.4700 C.3     1  UNL1        0.0953
     15 C          17.5634   43.9751    7.7884 C.3     1  UNL1        0.0953
     16 C          16.4790   44.2407    6.7990 C.2     1  UNL1        0.2322
     17 N          15.4541   43.2670    6.8243 N.am    1  UNL1       -0.2206
     18 C           8.1525   41.5111    8.5327 C.3     1  UNL1        0.1569
     19 O           5.7165   41.4175    8.3647 O.3     1  UNL1       -0.3542
     20 C           6.9041   41.8778    7.7350 C.3     1  UNL1        0.1395
     21 C           6.8969   43.3815    7.4050 C.3     1  UNL1        0.0317
     22 C           5.4826   43.9471    7.5016 C.3     1  UNL1        0.0051
     23 C           4.8640   43.6286    8.8637 C.3     1  UNL1        0.0322
     24 C           5.3823   42.2959    9.4161 C.3     1  UNL1        0.1421
@<TRIPOS>BOND
     1     7     8   am
     2    10     7    1
     3    10    17    1
     4    14    13    1
     5    14    15    1
     6    15    16    1
     7    16    17   am
     8     2     4   ar
     9    18     4    1
    10    20    18    1
    11    20    21    1
    12    20    19    1
    13    21    22    1
    14    22    23    1
    15    23    24    1
    16    24    19    1
    17     3     1   ar
    18    17    13   am
    19     8     1    1
    20     4     5   ar
    21     7     6    2
    22    13    11    2
    23    16    12    2
    24     1     2   ar
    25     3     5   ar
    26     8     9    1
@<TRIPOS>MOLECULE
MolPort-039-210-383 CSSS03436976271 MCULE-3826200929 PubChem-121016978
 24 26 0 0 0
SMALL
GASTEIGER

@<TRIPOS>ATOM
      1 C          11.1966   41.7221    6.3267 C.ar    1  UNL1        0.0905
      2 C          10.8709   41.5859    7.6568 C.ar    1  UNL1        0.1114
      3 C          10.0471   41.5151    5.5852 C.ar    1  UNL1        0.1363
      4 N           9.5531   41.3194    7.6820 N.ar    1  UNL1       -0.2456
      5 N           9.0516   41.2673    6.4579 N.ar    1  UNL1       -0.1662
      6 O          13.0073   43.7908    7.2675 O.2     1  UNL1       -0.2729
      7 C          13.3525   43.0631    6.2985 C.2     1  UNL1        0.2469
      8 N          12.5084   42.0060    5.8314 N.am    1  UNL1       -0.2800
      9 H          12.8575   41.4295    5.1137 H       1  UNL1        0.1550
     10 C          14.6613   43.3023    5.6258 C.3     1  UNL1        0.1859
     11 O          16.9280   45.1837    6.0545 O.2     1  UNL1       -0.2744
     12 O          15.0346   41.3633    7.8465 O.2     1  UNL1       -0.2744
     13 C          16.7480   44.1966    6.8153 C.2     1  UNL1        0.2322
     14 C          17.5510   43.9415    8.0453 C.3     1  UNL1        0.0953
     15 C          16.9132   42.6779    8.6491 C.3     1  UNL1        0.0953
     16 C          15.8226   42.3338    7.6912 C.2     1  UNL1        0.2322
     17 N          15.7493   43.2200    6.5920 N.am    1  UNL1       -0.2206
     18 C           8.7684   41.1019    8.8853 C.3     1  UNL1        0.1569
     19 O           8.4092   42.5808   10.7970 O.3     1  UNL1       -0.3542
     20 C           9.3822   41.8447   10.0688 C.3     1  UNL1        0.1395
     21 C          10.2190   40.8845   10.9336 C.3     1  UNL1        0.0317
     22 C          10.0545   41.2122   12.4151 C.3     1  UNL1        0.0051
     23 C           8.5753   41.2349   12.8035 C.3     1  UNL1        0.0322
     24 C           7.6970   41.6988   11.6359 C.3     1  UNL1        0.1421
@<TRIPOS>BOND
     1     7     8   am
     2    10     7    1
     3    10    17    1
     4    14    13    1
     5    14    15    1
     6    15    16    1
     7    16    17   am
     8     2     4   ar
     9    18     4    1
    10    20    18    1
    11    20    21    1
    12    20    19    1
    13    21    22    1
    14    22    23    1
    15    23    24    1
    16    24    19    1
    17     3     1   ar
    18    17    13   am
    19     8     1    1
    20     4     5   ar
    21     7     6    2
    22    13    11    2
    23    16    12    2
    24     1     2   ar
    25     3     5   ar
    26     8     9    1
@<TRIPOS>MOLECULE
MolPort-039-210-383 CSSS03436976271 MCULE-3826200929 PubChem-121016978
 24 26 0 0 0
SMALL
GASTEIGER

@<TRIPOS>ATOM
      1 C          11.1073   41.5906    8.4630 C.ar    1  UNL1        0.0905
      2 C          12.2014   42.2832    7.9973 C.ar    1  UNL1        0.1114
      3 C          11.4490   40.2515    8.5281 C.ar    1  UNL1        0.1363
      4 N          13.1620   41.3608    7.8111 N.ar    1  UNL1       -0.2456
      5 N          12.7269   40.1481    8.1158 N.ar    1  UNL1       -0.1662
      6 O          10.6194   43.7046   10.3960 O.2     1  UNL1       -0.2729
      7 C           9.6451   43.1942    9.7812 C.2     1  UNL1        0.2469
      8 N           9.8458   42.1803    8.7912 N.am    1  UNL1       -0.2800
      9 H           9.0546   41.8643    8.2979 H       1  UNL1        0.1550
     10 C           8.2592   43.6519   10.0854 C.3     1  UNL1        0.1859
     11 O           6.9422   41.7196   11.9276 O.2     1  UNL1       -0.2744
     12 O           6.9126   43.0643    7.5023 O.2     1  UNL1       -0.2744
     13 C           6.6316   41.7725   10.7084 C.2     1  UNL1        0.2322
     14 C           5.5207   40.9848   10.1017 C.3     1  UNL1        0.0953
     15 C           5.5018   41.4413    8.6323 C.3     1  UNL1        0.0953
     16 C           6.6155   42.4304    8.5495 C.2     1  UNL1        0.2322
     17 N           7.2994   42.5998    9.7754 N.am    1  UNL1       -0.2206
     18 C          14.5036   41.6388    7.3277 C.3     1  UNL1        0.1569
     19 O          15.9164   43.5358    7.9411 O.3     1  UNL1       -0.3542
     20 C          14.7431   43.1436    7.2423 C.3     1  UNL1        0.1395
     21 C          14.6984   43.6150    5.7774 C.3     1  UNL1        0.0317
     22 C          15.7488   44.6935    5.5265 C.3     1  UNL1        0.0051
     23 C          17.1341   44.2110    5.9596 C.3     1  UNL1        0.0322
     24 C          17.0447   43.2451    7.1466 C.3     1  UNL1        0.1421
@<TRIPOS>BOND
     1     7     8   am
     2    10     7    1
     3    10    17    1
     4    14    13    1
     5    14    15    1
     6    15    16    1
     7    16    17   am
     8     2     4   ar
     9    18     4    1
    10    20    18    1
    11    20    21    1
    12    20    19    1
    13    21    22    1
    14    22    23    1
    15    23    24    1
    16    24    19    1
    17     3     1   ar
    18    17    13   am
    19     8     1    1
    20     4     5   ar
    21     7     6    2
    22    13    11    2
    23    16    12    2
    24     1     2   ar
    25     3     5   ar
    26     8     9    1
@<TRIPOS>MOLECULE
MolPort-039-210-383 CSSS03436976271 MCULE-3826200929 PubChem-121016978
 24 26 0 0 0
SMALL
GASTEIGER

@<TRIPOS>ATOM
      1 C          11.6856   41.3352    9.3797 C.ar    1  UNL1        0.0905
      2 C          11.9747   40.4991   10.4337 C.ar    1  UNL1        0.1114
      3 C          12.8539   41.5396    8.6674 C.ar    1  UNL1        0.1363
      4 N          13.2843   40.2148   10.3223 N.ar    1  UNL1       -0.2456
      5 N          13.8213   40.8317    9.2814 N.ar    1  UNL1       -0.1662
      6 O          10.6898   43.9224   10.2503 O.2     1  UNL1       -0.2729
      7 C           9.9322   43.1593    9.5936 C.2     1  UNL1        0.2469
      8 N          10.3968   41.8949    9.1101 N.am    1  UNL1       -0.2800
      9 H           9.7819   41.3696    8.5486 H       1  UNL1        0.1550
     10 C           8.5290   43.5766    9.3117 C.3     1  UNL1        0.1859
     11 O           8.4492   42.2016   11.9507 O.2     1  UNL1       -0.2744
     12 O           6.0607   42.5595    8.0062 O.2     1  UNL1       -0.2744
     13 C           7.5470   42.0161   11.0921 C.2     1  UNL1        0.2322
     14 C           6.3179   41.2104   11.3428 C.3     1  UNL1        0.0953
     15 C           5.5166   41.3398   10.0354 C.3     1  UNL1        0.0953
     16 C           6.3803   42.1927    9.1682 C.2     1  UNL1        0.2322
     17 N           7.5946   42.5652    9.7893 N.am    1  UNL1       -0.2206
     18 C          14.0314   39.3549   11.2243 C.3     1  UNL1        0.1569
     19 O          14.9536   37.0921   11.2344 O.3     1  UNL1       -0.3542
     20 C          14.7524   38.2574   10.4466 C.3     1  UNL1        0.1395
     21 C          14.0455   37.9931    9.1048 C.3     1  UNL1        0.0317
     22 C          14.0524   36.5026    8.7770 C.3     1  UNL1        0.0051
     23 C          13.4668   35.6912    9.9338 C.3     1  UNL1        0.0322
     24 C          13.7512   36.3569   11.2850 C.3     1  UNL1        0.1421
@<TRIPOS>BOND
     1     7     8   am
     2    10     7    1
     3    10    17    1
     4    14    13    1
     5    14    15    1
     6    15    16    1
     7    16    17   am
     8     2     4   ar
     9    18     4    1
    10    20    18    1
    11    20    21    1
    12    20    19    1
    13    21    22    1
    14    22    23    1
    15    23    24    1
    16    24    19    1
    17     3     1   ar
    18    17    13   am
    19     8     1    1
    20     4     5   ar
    21     7     6    2
    22    13    11    2
    23    16    12    2
    24     1     2   ar
    25     3     5   ar
    26     8     9    1
@<TRIPOS>MOLECULE
MolPort-039-210-383 CSSS03436976271 MCULE-3826200929 PubChem-121016978
 24 26 0 0 0
SMALL
GASTEIGER

@<TRIPOS>ATOM
      1 C           9.9851   41.4622    7.0113 C.ar    1  UNL1        0.0905
      2 C          10.8980   41.9323    7.9274 C.ar    1  UNL1        0.1114
      3 C          10.6524   41.2499    5.8181 C.ar    1  UNL1        0.1363
      4 N          12.0743   41.9762    7.2774 N.ar    1  UNL1       -0.2456
      5 N          11.9422   41.5802    6.0210 N.ar    1  UNL1       -0.1662
      6 O           8.4399   42.5956    9.1956 O.2     1  UNL1       -0.2729
      7 C           7.8792   41.8085    8.3870 C.2     1  UNL1        0.2469
      8 N           8.5931   41.2614    7.2737 N.am    1  UNL1       -0.2800
      9 H           8.0871   40.7038    6.6394 H       1  UNL1        0.1550
     10 C           6.4488   41.4396    8.5882 C.3     1  UNL1        0.1859
     11 O           4.1338   42.5017   10.1292 O.2     1  UNL1       -0.2744
     12 O           6.7155   43.4417    6.4085 O.2     1  UNL1       -0.2744
     13 C           4.5579   43.0921    9.1010 C.2     1  UNL1        0.2322
     14 C           4.0420   44.4093    8.6301 C.3     1  UNL1        0.0953
     15 C           4.9094   44.7288    7.3998 C.3     1  UNL1        0.0953
     16 C           5.8192   43.5520    7.2868 C.2     1  UNL1        0.2322
     17 N           5.5858   42.5728    8.2796 N.am    1  UNL1       -0.2206
     18 C          13.3332   42.4105    7.8583 C.3     1  UNL1        0.1569
     19 O          14.1750   43.2073    5.7072 O.3     1  UNL1       -0.3542
     20 C          14.4492   42.3652    6.8182 C.3     1  UNL1        0.1395
     21 C          15.8148   42.6246    7.4801 C.3     1  UNL1        0.0317
     22 C          16.7011   43.4719    6.5714 C.3     1  UNL1        0.0051
     23 C          15.9812   44.7564    6.1576 C.3     1  UNL1        0.0322
     24 C          14.4666   44.5419    6.0575 C.3     1  UNL1        0.1421
@<TRIPOS>BOND
     1     7     8   am
     2    10     7    1
     3    10    17    1
     4    14    13    1
     5    14    15    1
     6    15    16    1
     7    16    17   am
     8     2     4   ar
     9    18     4    1
    10    20    18    1
    11    20    21    1
    12    20    19    1
    13    21    22    1
    14    22    23    1
    15    23    24    1
    16    24    19    1
    17     3     1   ar
    18    17    13   am
    19     8     1    1
    20     4     5   ar
    21     7     6    2
    22    13    11    2
    23    16    12    2
    24     1     2   ar
    25     3     5   ar
    26     8     9    1
@<TRIPOS>MOLECULE
MolPort-039-210-383 CSSS03436976271 MCULE-3826200929 PubChem-121016978
 24 26 0 0 0
SMALL
GASTEIGER

@<TRIPOS>ATOM
      1 C          11.8873   39.7672    8.5175 C.ar    1  UNL1        0.0905
      2 C          13.2545   39.6110    8.5302 C.ar    1  UNL1        0.1114
      3 C          11.4341   39.6435    9.8188 C.ar    1  UNL1        0.1363
      4 N          13.5851   39.4152    9.8189 N.ar    1  UNL1       -0.2456
      5 N          12.5127   39.4251   10.5952 N.ar    1  UNL1       -0.1662
      6 O          11.6570   42.2492    7.0243 O.2     1  UNL1       -0.2729
      7 C          10.9855   41.2466    6.6614 C.2     1  UNL1        0.2469
      8 N          11.1015   39.9939    7.3437 N.am    1  UNL1       -0.2800
      9 H          10.6019   39.2290    6.9769 H       1  UNL1        0.1550
     10 C          10.0552   41.3620    5.5021 C.3     1  UNL1        0.1859
     11 O           8.4796   38.9434    4.7745 O.2     1  UNL1       -0.2744
     12 O           8.2679   42.7016    7.4622 O.2     1  UNL1       -0.2744
     13 C           8.0380   39.7840    5.6016 C.2     1  UNL1        0.2322
     14 C           6.7752   39.6024    6.3731 C.3     1  UNL1        0.0953
     15 C           6.7108   40.8461    7.2770 C.3     1  UNL1        0.0953
     16 C           7.9358   41.6166    6.9149 C.2     1  UNL1        0.2322
     17 N           8.7019   40.9966    5.9011 N.am    1  UNL1       -0.2206
     18 C          14.9359   39.2062   10.3115 C.3     1  UNL1        0.1569
     19 O          15.0643   36.9963   11.3463 O.3     1  UNL1       -0.3542
     20 C          15.3397   37.7414   10.1683 C.3     1  UNL1        0.1395
     21 C          14.7343   37.1374    8.8881 C.3     1  UNL1        0.0317
     22 C          14.2908   35.6972    9.1300 C.3     1  UNL1        0.0051
     23 C          13.3517   35.6149   10.3346 C.3     1  UNL1        0.0322
     24 C          13.6901   36.6819   11.3820 C.3     1  UNL1        0.1421
@<TRIPOS>BOND
     1     7     8   am
     2    10     7    1
     3    10    17    1
     4    14    13    1
     5    14    15    1
     6    15    16    1
     7    16    17   am
     8     2     4   ar
     9    18     4    1
    10    20    18    1
    11    20    21    1
    12    20    19    1
    13    21    22    1
    14    22    23    1
    15    23    24    1
    16    24    19    1
    17     3     1   ar
    18    17    13   am
    19     8     1    1
    20     4     5   ar
    21     7     6    2
    22    13    11    2
    23    16    12    2
    24     1     2   ar
    25     3     5   ar
    26     8     9    1
@<TRIPOS>MOLECULE
MolPort-039-210-383 CSSS03436976271 MCULE-3826200929 PubChem-121016978
 24 26 0 0 0
SMALL
GASTEIGER

@<TRIPOS>ATOM
      1 C          11.5505   41.1141    7.0755 C.ar    1  UNL1        0.0905
      2 C          12.3321   40.5499    8.0575 C.ar    1  UNL1        0.1114
      3 C          12.3390   41.9989    6.3617 C.ar    1  UNL1        0.1363
      4 N          13.5541   41.0896    7.9030 N.ar    1  UNL1       -0.2456
      5 N          13.5713   41.9576    6.9036 N.ar    1  UNL1       -0.1662
      6 O           9.3297   41.9671    8.7440 O.2     1  UNL1       -0.2729
      7 C           9.1035   41.2372    7.7421 C.2     1  UNL1        0.2469
      8 N          10.1634   40.8297    6.8709 N.am    1  UNL1       -0.2800
      9 H           9.9190   40.3138    6.0688 H       1  UNL1        0.1550
     10 C           7.7108   40.7897    7.4546 C.3     1  UNL1        0.1859
     11 O           5.9805   41.4664    9.7806 O.2     1  UNL1       -0.2744
     12 O           7.2567   43.1051    5.6480 O.2     1  UNL1       -0.2744
     13 C           6.0540   42.2276    8.7802 C.2     1  UNL1        0.2322
     14 C           5.4000   43.5654    8.7074 C.3     1  UNL1        0.0953
     15 C           5.8349   44.1167    7.3381 C.3     1  UNL1        0.0953
     16 C           6.6787   43.0284    6.7647 C.2     1  UNL1        0.2322
     17 N           6.7801   41.9004    7.6111 N.am    1  UNL1       -0.2206
     18 C          14.7125   40.7814    8.7241 C.3     1  UNL1        0.1569
     19 O          15.6750   38.6135    9.3113 O.3     1  UNL1       -0.3542
     20 C          14.5278   39.4428    9.4335 C.3     1  UNL1        0.1395
     21 C          14.0629   39.6608   10.8849 C.3     1  UNL1        0.0317
     22 C          14.7208   38.6485   11.8186 C.3     1  UNL1        0.0051
     23 C          16.2423   38.6792   11.6648 C.3     1  UNL1        0.0322
     24 C          16.6530   39.0413   10.2330 C.3     1  UNL1        0.1421
@<TRIPOS>BOND
     1     7     8   am
     2    10     7    1
     3    10    17    1
     4    14    13    1
     5    14    15    1
     6    15    16    1
     7    16    17   am
     8     2     4   ar
     9    18     4    1
    10    20    18    1
    11    20    21    1
    12    20    19    1
    13    21    22    1
    14    22    23    1
    15    23    24    1
    16    24    19    1
    17     3     1   ar
    18    17    13   am
    19     8     1    1
    20     4     5   ar
    21     7     6    2
    22    13    11    2
    23    16    12    2
    24     1     2   ar
    25     3     5   ar
    26     8     9    1
@<TRIPOS>MOLECULE
MolPort-039-210-383 CSSS03436976271 MCULE-3826200929 PubChem-121016978
 24 26 0 0 0
SMALL
GASTEIGER

@<TRIPOS>ATOM
      1 C          10.7743   41.5493    7.8578 C.ar    1  UNL1        0.0905
      2 C          11.8634   41.6988    7.0300 C.ar    1  UNL1        0.1114
      3 C          11.2419   41.4012    9.1514 C.ar    1  UNL1        0.1363
      4 N          12.9397   41.6522    7.8348 N.ar    1  UNL1       -0.2456
      5 N          12.5859   41.4688    9.0973 N.ar    1  UNL1       -0.1662
      6 O           8.9196   39.3180    8.0140 O.2     1  UNL1       -0.2729
      7 C           8.5439   40.3960    7.4806 C.2     1  UNL1        0.2469
      8 N           9.4120   41.5322    7.4210 N.am    1  UNL1       -0.2800
      9 H           9.0432   42.3666    7.0509 H       1  UNL1        0.1550
     10 C           7.1733   40.4946    6.9023 C.3     1  UNL1        0.1859
     11 O           5.6479   41.0818    9.3903 O.2     1  UNL1       -0.2744
     12 O           7.3016   43.1660    5.6069 O.2     1  UNL1       -0.2744
     13 C           5.9081   41.9888    8.5564 C.2     1  UNL1        0.2322
     14 C           5.5979   43.4303    8.7766 C.3     1  UNL1        0.0953
     15 C           6.1594   44.1260    7.5241 C.3     1  UNL1        0.0953
     16 C           6.7172   43.0062    6.7114 C.2     1  UNL1        0.2322
     17 N           6.5386   41.7401    7.3148 N.am    1  UNL1       -0.2206
     18 C          14.3184   41.7732    7.3927 C.3     1  UNL1        0.1569
     19 O          15.9275   43.5432    7.8915 O.3     1  UNL1       -0.3542
     20 C          14.7050   43.2410    7.2335 C.3     1  UNL1        0.1395
     21 C          14.6736   43.6496    5.7495 C.3     1  UNL1        0.0317
     22 C          15.8204   44.6045    5.4296 C.3     1  UNL1        0.0051
     23 C          17.1603   44.0042    5.8585 C.3     1  UNL1        0.0322
     24 C          17.0024   43.1054    7.0903 C.3     1  UNL1        0.1421
@<TRIPOS>BOND
     1     7     8   am
     2    10     7    1
     3    10    17    1
     4    14    13    1
     5    14    15    1
     6    15    16    1
     7    16    17   am
     8     2     4   ar
     9    18     4    1
    10    20    18    1
    11    20    21    1
    12    20    19    1
    13    21    22    1
    14    22    23    1
    15    23    24    1
    16    24    19    1
    17     3     1   ar
    18    17    13   am
    19     8     1    1
    20     4     5   ar
    21     7     6    2
    22    13    11    2
    23    16    12    2
    24     1     2   ar
    25     3     5   ar
    26     8     9    1
