@<TRIPOS>MOLECULE
MolPort-005-125-726 20119861 CSSS00159545606 PubChem-28642449 ZINC000020119861
 32 35 0 0 0
SMALL
GASTEIGER

@<TRIPOS>ATOM
      1 C          10.3532   40.3997    9.8368 C.3     1  UNL1        0.0744
      2 C           9.7016   41.6900    9.3431 C.3     1  UNL1        0.0418
      3 C          10.6125   42.4166    8.3508 C.3     1  UNL1        0.1093
      4 C          12.0259   42.5816    8.9143 C.3     1  UNL1        0.0418
      5 C          12.5662   41.2478    9.4261 C.3     1  UNL1        0.0744
      6 N          11.6645   40.6803   10.4323 N.3     1  UNL1       -0.2688
      7 C           9.9690   40.7473    5.2513 C.ar    1  UNL1        0.1230
      8 C          11.3508   40.8568    5.1396 C.ar    1  UNL1        0.0565
      9 C          11.7160   41.5011    6.3070 C.ar    1  UNL1        0.1328
     10 N          10.6283   41.7509    7.0485 N.ar    1  UNL1       -0.2394
     11 N           9.5613   41.2962    6.4149 N.ar    1  UNL1       -0.1666
     12 C          13.7470   43.0448    6.2891 C.2     1  UNL1        0.2521
     13 O          13.2008   43.8736    5.5110 O.2     1  UNL1       -0.2697
     14 N          13.0451   41.8644    6.7026 N.am    1  UNL1       -0.2660
     15 H          13.5169   41.2505    7.3106 H       1  UNL1        0.1566
     16 C          15.1152   43.2901    6.7769 C.ar    1  UNL1        0.0728
     17 C          15.8396   44.4092    6.3453 C.ar    1  UNL1        0.1034
     18 C          17.6991   43.7789    7.6803 C.ar    1  UNL1        0.0989
     19 C          17.0156   42.6508    8.1379 C.ar    1  UNL1        0.0208
     20 C          15.7190   42.4089    7.6820 C.ar    1  UNL1        0.0077
     21 N          17.1025   44.6276    6.8012 N.ar    1  UNL1       -0.2422
     22 C          12.2460   39.4410   10.9679 C.3     1  UNL1        0.0989
     23 C          14.3652   38.3371   10.3341 C.2     1  UNL1       -0.0002
     24 C          13.7478   39.3794   10.8798 C.2     1  UNL1       -0.0087
     25 C          16.4840   37.0010    9.8323 C.ar    1  UNL1        0.1386
     26 C          15.8302   38.1919   10.2346 C.ar    1  UNL1        0.0337
     27 C          16.5949   39.3211   10.5503 C.ar    1  UNL1        0.0030
     28 C          17.9884   39.2847   10.4783 C.ar    1  UNL1        0.0002
     29 C          18.6352   38.1135   10.0862 C.ar    1  UNL1        0.0031
     30 C          17.8881   36.9796    9.7649 C.ar    1  UNL1        0.0369
     31 C          14.3645   35.9041    9.1595 C.3     1  UNL1        0.2525
     32 O          15.7431   35.8594    9.5025 O.3     1  UNL1       -0.4714
@<TRIPOS>BOND
     1    31    32    1
     2    25    32    1
     3    26    23    1
     4    26    27   ar
     5    22    24    1
     6    22     6    1
     7     1     6    1
     8     1     2    1
     9     2     3    1
    10     3     4    1
    11     3    10    1
    12     4     5    1
    13     5     6    1
    14     7     8   ar
    15     9    14    1
    16     9    10   ar
    17    12    16    1
    18    17    21   ar
    19    18    19   ar
    20    20    16   ar
    21    28    29   ar
    22    30    25   ar
    23    10    11   ar
    24    14    12   am
    25    25    26   ar
    26    23    24    2
    27     7    11   ar
    28     8     9   ar
    29    12    13    2
    30    16    17   ar
    31    18    21   ar
    32    19    20   ar
    33    27    28   ar
    34    29    30   ar
    35    14    15    1
@<TRIPOS>MOLECULE
MolPort-005-125-726 20119861 CSSS00159545606 PubChem-28642449 ZINC000020119861
 32 35 0 0 0
SMALL
GASTEIGER

@<TRIPOS>ATOM
      1 C           8.6919   41.4103    9.8129 C.3     1  UNL1        0.0744
      2 C           8.3105   42.2097    8.5684 C.3     1  UNL1        0.0418
      3 C           9.5185   42.3945    7.6470 C.3     1  UNL1        0.1093
      4 C          10.7254   42.9355    8.4171 C.3     1  UNL1        0.0418
      5 C          10.9918   42.0994    9.6673 C.3     1  UNL1        0.0744
      6 N           9.8014   42.0585   10.5212 N.3     1  UNL1       -0.2688
      7 C           9.7102   39.1538    6.1410 C.ar    1  UNL1        0.1230
      8 C          10.9309   39.6542    5.7013 C.ar    1  UNL1        0.0565
      9 C          10.9645   40.9293    6.2345 C.ar    1  UNL1        0.1328
     10 N           9.8458   41.1595    6.9351 N.ar    1  UNL1       -0.2394
     11 N           9.0770   40.0857    6.8841 N.ar    1  UNL1       -0.1666
     12 C          13.2808   41.8586    6.7633 C.2     1  UNL1        0.2521
     13 O          13.5478   40.9299    7.5739 O.2     1  UNL1       -0.2697
     14 N          12.0176   41.8905    6.0850 N.am    1  UNL1       -0.2660
     15 H          11.8600   42.6370    5.4628 H       1  UNL1        0.1566
     16 C          14.2727   42.9182    6.5113 C.ar    1  UNL1        0.0728
     17 C          14.0214   43.9251    5.5698 C.ar    1  UNL1        0.1034
     18 C          16.1258   44.9309    6.0145 C.ar    1  UNL1        0.0989
     19 C          16.4194   43.9483    6.9617 C.ar    1  UNL1        0.0208
     20 C          15.4868   42.9398    7.2082 C.ar    1  UNL1        0.0077
     21 N          14.9432   44.8997    5.3438 N.ar    1  UNL1       -0.2422
     22 C          10.1080   41.3186   11.7539 C.3     1  UNL1        0.0989
     23 C          12.2473   40.2817   11.0759 C.2     1  UNL1       -0.0002
     24 C          11.0147   40.1341   11.5496 C.2     1  UNL1       -0.0087
     25 C          13.0215   38.2131    9.7922 C.ar    1  UNL1        0.1386
     26 C          13.1845   39.1702   10.8244 C.ar    1  UNL1        0.0337
     27 C          14.3011   39.0894   11.6646 C.ar    1  UNL1        0.0030
     28 C          15.2486   38.0776   11.5004 C.ar    1  UNL1        0.0002
     29 C          15.0897   37.1322   10.4881 C.ar    1  UNL1        0.0031
     30 C          13.9841   37.1998    9.6396 C.ar    1  UNL1        0.0369
     31 C          10.7334   37.5179    9.1371 C.3     1  UNL1        0.2525
     32 O          11.9184   38.2755    8.9321 O.3     1  UNL1       -0.4714
@<TRIPOS>BOND
     1    31    32    1
     2    25    32    1
     3    26    23    1
     4    26    27   ar
     5    22    24    1
     6    22     6    1
     7     1     6    1
     8     1     2    1
     9     2     3    1
    10     3     4    1
    11     3    10    1
    12     4     5    1
    13     5     6    1
    14     7     8   ar
    15     9    14    1
    16     9    10   ar
    17    12    16    1
    18    17    21   ar
    19    18    19   ar
    20    20    16   ar
    21    28    29   ar
    22    30    25   ar
    23    10    11   ar
    24    14    12   am
    25    25    26   ar
    26    23    24    2
    27     7    11   ar
    28     8     9   ar
    29    12    13    2
    30    16    17   ar
    31    18    21   ar
    32    19    20   ar
    33    27    28   ar
    34    29    30   ar
    35    14    15    1
@<TRIPOS>MOLECULE
MolPort-005-125-726 20119861 CSSS00159545606 PubChem-28642449 ZINC000020119861
 32 35 0 0 0
SMALL
GASTEIGER

@<TRIPOS>ATOM
      1 C           9.5418   42.6817   10.4688 C.3     1  UNL1        0.0744
      2 C          10.9286   43.1059    9.9893 C.3     1  UNL1        0.0418
      3 C          11.6924   41.9149    9.4055 C.3     1  UNL1        0.1093
      4 C          11.6778   40.7229   10.3653 C.3     1  UNL1        0.0418
      5 C          10.2545   40.4121   10.8244 C.3     1  UNL1        0.0744
      6 N           9.6459   41.5917   11.4455 N.3     1  UNL1       -0.2688
      7 C           9.9188   40.7523    6.5229 C.ar    1  UNL1        0.1230
      8 C          11.0242   41.2939    5.8760 C.ar    1  UNL1        0.0565
      9 C          11.7944   41.7835    6.9145 C.ar    1  UNL1        0.1328
     10 N          11.1851   41.5463    8.0841 N.ar    1  UNL1       -0.2394
     11 N          10.0441   40.9197    7.8562 N.ar    1  UNL1       -0.1666
     12 C          14.3064   41.9684    7.3191 C.2     1  UNL1        0.2521
     13 O          14.3607   40.8712    7.9385 O.2     1  UNL1       -0.2697
     14 N          13.0587   42.4493    6.8004 N.am    1  UNL1       -0.2660
     15 H          13.0717   43.3113    6.3249 H       1  UNL1        0.1566
     16 C          15.5324   42.7622    7.1267 C.ar    1  UNL1        0.0728
     17 C          15.6039   43.7379    6.1236 C.ar    1  UNL1        0.1034
     18 C          17.8328   44.2756    6.7403 C.ar    1  UNL1        0.0989
     19 C          17.8075   43.3145    7.7525 C.ar    1  UNL1        0.0208
     20 C          16.6510   42.5569    7.9433 C.ar    1  UNL1        0.0077
     21 N          16.7402   44.4662    5.9535 N.ar    1  UNL1       -0.2422
     22 C           8.3101   41.2446   11.9517 C.3     1  UNL1        0.0989
     23 C           6.8603   41.9801   10.0894 C.2     1  UNL1       -0.0002
     24 C           7.1981   42.0768   11.3707 C.2     1  UNL1       -0.0087
     25 C           4.4243   42.6747    9.7575 C.ar    1  UNL1        0.1386
     26 C           5.8018   42.7783    9.4417 C.ar    1  UNL1        0.0337
     27 C           6.2152   43.6957    8.4686 C.ar    1  UNL1        0.0030
     28 C           5.2886   44.5021    7.8057 C.ar    1  UNL1        0.0002
     29 C           3.9322   44.4004    8.1114 C.ar    1  UNL1        0.0031
     30 C           3.5030   43.4933    9.0810 C.ar    1  UNL1        0.0369
     31 C           3.8744   40.3737   10.4998 C.3     1  UNL1        0.2525
     32 O           3.9842   41.7715   10.7328 O.3     1  UNL1       -0.4714
@<TRIPOS>BOND
     1    31    32    1
     2    25    32    1
     3    26    23    1
     4    26    27   ar
     5    22    24    1
     6    22     6    1
     7     1     6    1
     8     1     2    1
     9     2     3    1
    10     3     4    1
    11     3    10    1
    12     4     5    1
    13     5     6    1
    14     7     8   ar
    15     9    14    1
    16     9    10   ar
    17    12    16    1
    18    17    21   ar
    19    18    19   ar
    20    20    16   ar
    21    28    29   ar
    22    30    25   ar
    23    10    11   ar
    24    14    12   am
    25    25    26   ar
    26    23    24    2
    27     7    11   ar
    28     8     9   ar
    29    12    13    2
    30    16    17   ar
    31    18    21   ar
    32    19    20   ar
    33    27    28   ar
    34    29    30   ar
    35    14    15    1
@<TRIPOS>MOLECULE
MolPort-005-125-726 20119861 CSSS00159545606 PubChem-28642449 ZINC000020119861
 32 35 0 0 0
SMALL
GASTEIGER

@<TRIPOS>ATOM
      1 C          11.0508   38.7989    9.6799 C.3     1  UNL1        0.0744
      2 C          10.6399   40.2219   10.0533 C.3     1  UNL1        0.0418
      3 C          11.4640   41.2501    9.2748 C.3     1  UNL1        0.1093
      4 C          12.9624   40.9600    9.3882 C.3     1  UNL1        0.0418
      5 C          13.2615   39.5022    9.0442 C.3     1  UNL1        0.0744
      6 N          12.4875   38.6024    9.9039 N.3     1  UNL1       -0.2688
      7 C           9.7983   41.3028    6.1078 C.ar    1  UNL1        0.1230
      8 C          11.0819   41.6057    5.6668 C.ar    1  UNL1        0.0565
      9 C          11.8268   41.6127    6.8315 C.ar    1  UNL1        0.1328
     10 N          11.0378   41.3345    7.8782 N.ar    1  UNL1       -0.2394
     11 N           9.8027   41.1445    7.4481 N.ar    1  UNL1       -0.1666
     12 C          13.9040   43.0519    6.4819 C.2     1  UNL1        0.2521
     13 O          13.2574   43.9759    5.9172 O.2     1  UNL1       -0.2697
     14 N          13.2319   41.8728    6.9454 N.am    1  UNL1       -0.2660
     15 H          13.7833   41.1821    7.3794 H       1  UNL1        0.1566
     16 C          15.3595   43.1840    6.6670 C.ar    1  UNL1        0.0728
     17 C          16.0036   42.5634    7.7456 C.ar    1  UNL1        0.1034
     18 C          18.1049   43.4156    7.0416 C.ar    1  UNL1        0.0989
     19 C          17.5064   44.0515    5.9524 C.ar    1  UNL1        0.0208
     20 C          16.1282   43.9329    5.7678 C.ar    1  UNL1        0.0077
     21 N          17.3481   42.6908    7.9083 N.ar    1  UNL1       -0.2422
     22 C          12.8534   37.2092    9.6103 C.3     1  UNL1        0.0989
     23 C          14.7632   35.9015    8.7420 C.2     1  UNL1       -0.0002
     24 C          14.1216   37.0628    8.8119 C.2     1  UNL1       -0.0087
     25 C          17.3108   35.7990    8.5814 C.ar    1  UNL1        0.1386
     26 C          16.0221   35.6855    8.0033 C.ar    1  UNL1        0.0337
     27 C          15.9045   35.3351    6.6532 C.ar    1  UNL1        0.0030
     28 C          17.0381   35.1023    5.8729 C.ar    1  UNL1        0.0002
     29 C          18.3078   35.2164    6.4375 C.ar    1  UNL1        0.0031
     30 C          18.4432   35.5619    7.7827 C.ar    1  UNL1        0.0369
     31 C          18.1080   37.3270   10.3640 C.3     1  UNL1        0.2525
     32 O          17.4571   36.1398    9.9317 O.3     1  UNL1       -0.4714
@<TRIPOS>BOND
     1    31    32    1
     2    25    32    1
     3    26    23    1
     4    26    27   ar
     5    22    24    1
     6    22     6    1
     7     1     6    1
     8     1     2    1
     9     2     3    1
    10     3     4    1
    11     3    10    1
    12     4     5    1
    13     5     6    1
    14     7     8   ar
    15     9    14    1
    16     9    10   ar
    17    12    16    1
    18    17    21   ar
    19    18    19   ar
    20    20    16   ar
    21    28    29   ar
    22    30    25   ar
    23    10    11   ar
    24    14    12   am
    25    25    26   ar
    26    23    24    2
    27     7    11   ar
    28     8     9   ar
    29    12    13    2
    30    16    17   ar
    31    18    21   ar
    32    19    20   ar
    33    27    28   ar
    34    29    30   ar
    35    14    15    1
@<TRIPOS>MOLECULE
MolPort-005-125-726 20119861 CSSS00159545606 PubChem-28642449 ZINC000020119861
 32 35 0 0 0
SMALL
GASTEIGER

@<TRIPOS>ATOM
      1 C           9.5134   42.4627   10.5479 C.3     1  UNL1        0.0744
      2 C          10.7841   43.0767    9.9636 C.3     1  UNL1        0.0418
      3 C          11.7392   41.9877    9.4693 C.3     1  UNL1        0.1093
      4 C          11.9717   40.9243   10.5451 C.3     1  UNL1        0.0418
      5 C          10.6437   40.4123   11.0993 C.3     1  UNL1        0.0744
      6 N           9.8441   41.5224   11.6247 N.3     1  UNL1       -0.2688
      7 C          10.0009   40.4600    6.7395 C.ar    1  UNL1        0.1230
      8 C          11.2376   40.6252    6.1254 C.ar    1  UNL1        0.0565
      9 C          12.0059   41.2206    7.1085 C.ar    1  UNL1        0.1328
     10 N          11.2734   41.3918    8.2174 N.ar    1  UNL1       -0.2394
     11 N          10.0531   40.9324    8.0027 N.ar    1  UNL1       -0.1666
     12 C          13.8537   42.9270    6.6818 C.2     1  UNL1        0.2521
     13 O          13.0379   43.8652    6.4700 O.2     1  UNL1       -0.2697
     14 N          13.3810   41.6106    6.9992 N.am    1  UNL1       -0.2660
     15 H          14.0596   40.9147    7.1554 H       1  UNL1        0.1566
     16 C          15.3021   43.1841    6.6026 C.ar    1  UNL1        0.0728
     17 C          15.8327   43.9840    5.5819 C.ar    1  UNL1        0.1034
     18 C          18.0312   43.6868    6.4280 C.ar    1  UNL1        0.0989
     19 C          17.5478   42.8837    7.4624 C.ar    1  UNL1        0.0208
     20 C          16.1773   42.6336    7.5466 C.ar    1  UNL1        0.0077
     21 N          17.1716   44.2161    5.5168 N.ar    1  UNL1       -0.2422
     22 C           8.6100   40.9959   12.2254 C.3     1  UNL1        0.0989
     23 C           6.9690   41.5826   10.4719 C.2     1  UNL1       -0.0002
     24 C           7.3546   41.6710   11.7403 C.2     1  UNL1       -0.0087
     25 C           5.7815   43.0926    8.7879 C.ar    1  UNL1        0.1386
     26 C           5.7683   42.2356    9.9162 C.ar    1  UNL1        0.0337
     27 C           4.5534   41.9623   10.5557 C.ar    1  UNL1        0.0030
     28 C           3.3614   42.5267   10.0988 C.ar    1  UNL1        0.0002
     29 C           3.3711   43.3732    8.9910 C.ar    1  UNL1        0.0031
     30 C           4.5729   43.6538    8.3397 C.ar    1  UNL1        0.0369
     31 C           7.1476   43.2122    6.7220 C.3     1  UNL1        0.2525
     32 O           6.9815   43.3761    8.1241 O.3     1  UNL1       -0.4714
@<TRIPOS>BOND
     1    31    32    1
     2    25    32    1
     3    26    23    1
     4    26    27   ar
     5    22    24    1
     6    22     6    1
     7     1     6    1
     8     1     2    1
     9     2     3    1
    10     3     4    1
    11     3    10    1
    12     4     5    1
    13     5     6    1
    14     7     8   ar
    15     9    14    1
    16     9    10   ar
    17    12    16    1
    18    17    21   ar
    19    18    19   ar
    20    20    16   ar
    21    28    29   ar
    22    30    25   ar
    23    10    11   ar
    24    14    12   am
    25    25    26   ar
    26    23    24    2
    27     7    11   ar
    28     8     9   ar
    29    12    13    2
    30    16    17   ar
    31    18    21   ar
    32    19    20   ar
    33    27    28   ar
    34    29    30   ar
    35    14    15    1
@<TRIPOS>MOLECULE
MolPort-005-125-726 20119861 CSSS00159545606 PubChem-28642449 ZINC000020119861
 32 35 0 0 0
SMALL
GASTEIGER

@<TRIPOS>ATOM
      1 C           8.3516   39.8159    6.4534 C.3     1  UNL1        0.0744
      2 C           9.4885   38.8753    6.0589 C.3     1  UNL1        0.0418
      3 C          10.8494   39.5053    6.3649 C.3     1  UNL1        0.1093
      4 C          10.9493   40.9179    5.7845 C.3     1  UNL1        0.0418
      5 C           9.7433   41.7607    6.1946 C.3     1  UNL1        0.0744
      6 N           8.4972   41.1109    5.7789 N.3     1  UNL1       -0.2688
      7 C          11.1462   38.9193    9.8829 C.ar    1  UNL1        0.1230
      8 C          11.9554   40.0470    9.7961 C.ar    1  UNL1        0.0565
      9 C          11.9138   40.3678    8.4520 C.ar    1  UNL1        0.1328
     10 N          11.1375   39.4925    7.7988 N.ar    1  UNL1       -0.2394
     11 N          10.6662   38.6082    8.6604 N.ar    1  UNL1       -0.1666
     12 C          14.0038   41.6634    7.7725 C.2     1  UNL1        0.2521
     13 O          14.7822   40.8408    8.3275 O.2     1  UNL1       -0.2697
     14 N          12.5843   41.4623    7.8137 N.am    1  UNL1       -0.2660
     15 H          12.0218   42.1341    7.3648 H       1  UNL1        0.1566
     16 C          14.5555   42.8392    7.0774 C.ar    1  UNL1        0.0728
     17 C          13.7509   43.6138    6.2312 C.ar    1  UNL1        0.1034
     18 C          15.5691   45.0638    5.7524 C.ar    1  UNL1        0.0989
     19 C          16.4082   44.3219    6.5856 C.ar    1  UNL1        0.0208
     20 C          15.8958   43.2060    7.2489 C.ar    1  UNL1        0.0077
     21 N          14.2690   44.6980    5.5936 N.ar    1  UNL1       -0.2422
     22 C           7.3579   41.9785    6.1108 C.3     1  UNL1        0.0989
     23 C           5.9777   42.3859    8.1210 C.2     1  UNL1       -0.0002
     24 C           6.5617   41.5173    7.3026 C.2     1  UNL1       -0.0087
     25 C           5.7876   41.5870   10.5400 C.ar    1  UNL1        0.1386
     26 C           5.2044   42.0135    9.3211 C.ar    1  UNL1        0.0337
     27 C           3.8113   42.1101    9.2241 C.ar    1  UNL1        0.0030
     28 C           2.9943   41.7873   10.3088 C.ar    1  UNL1        0.0002
     29 C           3.5645   41.3640   11.5086 C.ar    1  UNL1        0.0031
     30 C           4.9516   41.2650   11.6236 C.ar    1  UNL1        0.0369
     31 C           7.8480   41.5593   11.9191 C.3     1  UNL1        0.2525
     32 O           7.1786   41.4897   10.6672 O.3     1  UNL1       -0.4714
@<TRIPOS>BOND
     1    31    32    1
     2    25    32    1
     3    26    23    1
     4    26    27   ar
     5    22    24    1
     6    22     6    1
     7     1     6    1
     8     1     2    1
     9     2     3    1
    10     3     4    1
    11     3    10    1
    12     4     5    1
    13     5     6    1
    14     7     8   ar
    15     9    14    1
    16     9    10   ar
    17    12    16    1
    18    17    21   ar
    19    18    19   ar
    20    20    16   ar
    21    28    29   ar
    22    30    25   ar
    23    10    11   ar
    24    14    12   am
    25    25    26   ar
    26    23    24    2
    27     7    11   ar
    28     8     9   ar
    29    12    13    2
    30    16    17   ar
    31    18    21   ar
    32    19    20   ar
    33    27    28   ar
    34    29    30   ar
    35    14    15    1
@<TRIPOS>MOLECULE
MolPort-005-125-726 20119861 CSSS00159545606 PubChem-28642449 ZINC000020119861
 32 35 0 0 0
SMALL
GASTEIGER

@<TRIPOS>ATOM
      1 C           9.6085   40.9259   10.2782 C.3     1  UNL1        0.0744
      2 C           8.8772   42.0829    9.6002 C.3     1  UNL1        0.0418
      3 C           9.6850   42.6207    8.4167 C.3     1  UNL1        0.1093
      4 C          11.1302   42.9195    8.8222 C.3     1  UNL1        0.0418
      5 C          11.7536   41.7213    9.5353 C.3     1  UNL1        0.0744
      6 N          10.9504   41.3423   10.7011 N.3     1  UNL1       -0.2688
      7 C           8.9575   40.1815    5.9012 C.ar    1  UNL1        0.1230
      8 C          10.1430   40.6753    5.3679 C.ar    1  UNL1        0.0565
      9 C          10.5227   41.6456    6.2766 C.ar    1  UNL1        0.1328
     10 N           9.6257   41.7154    7.2695 N.ar    1  UNL1       -0.2394
     11 N           8.6704   40.8290    7.0500 N.ar    1  UNL1       -0.1666
     12 C          13.0320   42.0522    6.4921 C.2     1  UNL1        0.2521
     13 O          13.2678   40.8640    6.8429 O.2     1  UNL1       -0.2697
     14 N          11.6913   42.4729    6.2049 N.am    1  UNL1       -0.2660
     15 H          11.5623   43.4109    5.9352 H       1  UNL1        0.1566
     16 C          14.1407   43.0153    6.3764 C.ar    1  UNL1        0.0728
     17 C          14.0550   44.1040    5.4985 C.ar    1  UNL1        0.1034
     18 C          16.2172   44.8491    6.1370 C.ar    1  UNL1        0.0989
     19 C          16.3470   43.7796    7.0249 C.ar    1  UNL1        0.0208
     20 C          15.3027   42.8614    7.1421 C.ar    1  UNL1        0.0077
     21 N          15.0839   44.9884    5.3984 N.ar    1  UNL1       -0.2422
     22 C          11.6133   40.2421   11.4160 C.3     1  UNL1        0.0989
     23 C          13.1702   38.3734   10.9741 C.2     1  UNL1       -0.0002
     24 C          12.2609   39.2257   10.5136 C.2     1  UNL1       -0.0087
     25 C          15.0016   37.6473    9.3477 C.ar    1  UNL1        0.1386
     26 C          13.8667   37.3680   10.1489 C.ar    1  UNL1        0.0337
     27 C          13.3608   36.0634   10.1903 C.ar    1  UNL1        0.0030
     28 C          13.9565   35.0409    9.4502 C.ar    1  UNL1        0.0002
     29 C          15.0712   35.3129    8.6582 C.ar    1  UNL1        0.0031
     30 C          15.5905   36.6071    8.6077 C.ar    1  UNL1        0.0369
     31 C          16.4623   39.4362   10.2500 C.3     1  UNL1        0.2525
     32 O          15.5335   38.9415    9.2946 O.3     1  UNL1       -0.4714
@<TRIPOS>BOND
     1    31    32    1
     2    25    32    1
     3    26    23    1
     4    26    27   ar
     5    22    24    1
     6    22     6    1
     7     1     6    1
     8     1     2    1
     9     2     3    1
    10     3     4    1
    11     3    10    1
    12     4     5    1
    13     5     6    1
    14     7     8   ar
    15     9    14    1
    16     9    10   ar
    17    12    16    1
    18    17    21   ar
    19    18    19   ar
    20    20    16   ar
    21    28    29   ar
    22    30    25   ar
    23    10    11   ar
    24    14    12   am
    25    25    26   ar
    26    23    24    2
    27     7    11   ar
    28     8     9   ar
    29    12    13    2
    30    16    17   ar
    31    18    21   ar
    32    19    20   ar
    33    27    28   ar
    34    29    30   ar
    35    14    15    1
@<TRIPOS>MOLECULE
MolPort-005-125-726 20119861 CSSS00159545606 PubChem-28642449 ZINC000020119861
 32 35 0 0 0
SMALL
GASTEIGER

@<TRIPOS>ATOM
      1 C          10.0038   39.9032    8.9031 C.3     1  UNL1        0.0744
      2 C          10.7861   38.7858    8.2155 C.3     1  UNL1        0.0418
      3 C          12.2638   39.1594    8.0768 C.3     1  UNL1        0.1093
      4 C          12.4285   40.5446    7.4472 C.3     1  UNL1        0.0418
      5 C          11.5691   41.5775    8.1735 C.3     1  UNL1        0.0744
      6 N          10.1624   41.1666    8.1739 N.3     1  UNL1       -0.2688
      7 C          13.5545   38.3987   11.3268 C.ar    1  UNL1        0.1230
      8 C          14.3779   39.4792   11.0294 C.ar    1  UNL1        0.0565
      9 C          13.9599   39.8623    9.7685 C.ar    1  UNL1        0.1328
     10 N          12.9648   39.0649    9.3570 N.ar    1  UNL1       -0.2394
     11 N          12.7112   38.1720   10.2977 N.ar    1  UNL1       -0.1666
     12 C          15.8744   41.2061    8.7503 C.2     1  UNL1        0.2521
     13 O          16.7599   40.4580    9.2471 O.2     1  UNL1       -0.2697
     14 N          14.4845   40.9429    8.9861 N.am    1  UNL1       -0.2660
     15 H          13.8343   41.5574    8.5752 H       1  UNL1        0.1566
     16 C          16.2698   42.3586    7.9222 C.ar    1  UNL1        0.0728
     17 C          15.3546   42.9597    7.0478 C.ar    1  UNL1        0.1034
     18 C          16.9873   44.5349    6.3472 C.ar    1  UNL1        0.0989
     19 C          17.9327   43.9684    7.2041 C.ar    1  UNL1        0.0208
     20 C          17.5687   42.8761    7.9929 C.ar    1  UNL1        0.0077
     21 N          15.7286   44.0237    6.2871 N.ar    1  UNL1       -0.2422
     22 C           9.3462   42.2138    8.8048 C.3     1  UNL1        0.0989
     23 C           7.0509   42.4092    9.7020 C.2     1  UNL1       -0.0002
     24 C           7.8647   41.9495    8.7577 C.2     1  UNL1       -0.0087
     25 C           4.6275   43.0966    9.2767 C.ar    1  UNL1        0.1386
     26 C           5.5953   42.1708    9.7393 C.ar    1  UNL1        0.0337
     27 C           5.1748   40.9398   10.2564 C.ar    1  UNL1        0.0030
     28 C           3.8182   40.6185   10.3257 C.ar    1  UNL1        0.0002
     29 C           2.8630   41.5284    9.8747 C.ar    1  UNL1        0.0031
     30 C           3.2649   42.7588    9.3533 C.ar    1  UNL1        0.0369
     31 C           6.3680   44.6357    8.4109 C.3     1  UNL1        0.2525
     32 O           5.0208   44.3316    8.7468 O.3     1  UNL1       -0.4714
@<TRIPOS>BOND
     1    31    32    1
     2    25    32    1
     3    26    23    1
     4    26    27   ar
     5    22    24    1
     6    22     6    1
     7     1     6    1
     8     1     2    1
     9     2     3    1
    10     3     4    1
    11     3    10    1
    12     4     5    1
    13     5     6    1
    14     7     8   ar
    15     9    14    1
    16     9    10   ar
    17    12    16    1
    18    17    21   ar
    19    18    19   ar
    20    20    16   ar
    21    28    29   ar
    22    30    25   ar
    23    10    11   ar
    24    14    12   am
    25    25    26   ar
    26    23    24    2
    27     7    11   ar
    28     8     9   ar
    29    12    13    2
    30    16    17   ar
    31    18    21   ar
    32    19    20   ar
    33    27    28   ar
    34    29    30   ar
    35    14    15    1
@<TRIPOS>MOLECULE
MolPort-005-125-726 20119861 CSSS00159545606 PubChem-28642449 ZINC000020119861
 32 35 0 0 0
SMALL
GASTEIGER

@<TRIPOS>ATOM
      1 C           9.2832   41.0406    8.5655 C.3     1  UNL1        0.0744
      2 C           8.2601   41.1931    9.6894 C.3     1  UNL1        0.0418
      3 C           8.0621   42.6671   10.0512 C.3     1  UNL1        0.1093
      4 C           9.4031   43.3615   10.3002 C.3     1  UNL1        0.0418
      5 C          10.3700   43.1066    9.1456 C.3     1  UNL1        0.0744
      6 N          10.5560   41.6676    8.9395 N.3     1  UNL1       -0.2688
      7 C           5.8742   44.7272    8.1079 C.ar    1  UNL1        0.1230
      8 C           6.4368   43.9929    7.0695 C.ar    1  UNL1        0.0565
      9 C           7.3176   43.1466    7.7169 C.ar    1  UNL1        0.1328
     10 N           7.2746   43.3684    9.0377 N.ar    1  UNL1       -0.2394
     11 N           6.3998   44.3276    9.2850 N.ar    1  UNL1       -0.1666
     12 C           7.8519   41.4049    5.9310 C.2     1  UNL1        0.2521
     13 O           6.7497   41.5674    5.3398 O.2     1  UNL1       -0.2697
     14 N           8.1658   42.1659    7.1054 N.am    1  UNL1       -0.2660
     15 H           9.0394   42.0005    7.5282 H       1  UNL1        0.1566
     16 C           8.8238   40.4268    5.4125 C.ar    1  UNL1        0.0728
     17 C           8.5372   39.0553    5.4277 C.ar    1  UNL1        0.1034
     18 C          10.6385   38.5577    4.4406 C.ar    1  UNL1        0.0989
     19 C          10.9673   39.9140    4.4050 C.ar    1  UNL1        0.0208
     20 C          10.0538   40.8490    4.8939 C.ar    1  UNL1        0.0077
     21 N           9.4408   38.1594    4.9466 N.ar    1  UNL1       -0.2422
     22 C          11.5514   41.4491    7.8800 C.3     1  UNL1        0.0989
     23 C          13.9661   41.7680    7.4573 C.2     1  UNL1       -0.0002
     24 C          12.8782   42.1123    8.1380 C.2     1  UNL1       -0.0087
     25 C          15.7406   43.5687    7.0892 C.ar    1  UNL1        0.1386
     26 C          15.3044   42.3520    7.6698 C.ar    1  UNL1        0.0337
     27 C          16.1702   41.6450    8.5125 C.ar    1  UNL1        0.0030
     28 C          17.4544   42.1212    8.7813 C.ar    1  UNL1        0.0002
     29 C          17.8882   43.3162    8.2090 C.ar    1  UNL1        0.0031
     30 C          17.0369   44.0352    7.3690 C.ar    1  UNL1        0.0369
     31 C          14.8246   44.0915    4.8451 C.3     1  UNL1        0.2525
     32 O          14.8920   44.3004    6.2494 O.3     1  UNL1       -0.4714
@<TRIPOS>BOND
     1    31    32    1
     2    25    32    1
     3    26    23    1
     4    26    27   ar
     5    22    24    1
     6    22     6    1
     7     1     6    1
     8     1     2    1
     9     2     3    1
    10     3     4    1
    11     3    10    1
    12     4     5    1
    13     5     6    1
    14     7     8   ar
    15     9    14    1
    16     9    10   ar
    17    12    16    1
    18    17    21   ar
    19    18    19   ar
    20    20    16   ar
    21    28    29   ar
    22    30    25   ar
    23    10    11   ar
    24    14    12   am
    25    25    26   ar
    26    23    24    2
    27     7    11   ar
    28     8     9   ar
    29    12    13    2
    30    16    17   ar
    31    18    21   ar
    32    19    20   ar
    33    27    28   ar
    34    29    30   ar
    35    14    15    1
@<TRIPOS>MOLECULE
MolPort-005-125-726 20119861 CSSS00159545606 PubChem-28642449 ZINC000020119861
 32 35 0 0 0
SMALL
GASTEIGER

@<TRIPOS>ATOM
      1 C          12.8768   37.3019    9.4841 C.3     1  UNL1        0.0744
      2 C          11.6527   38.0852    9.9546 C.3     1  UNL1        0.0418
      3 C          11.7313   39.5449    9.5013 C.3     1  UNL1        0.1093
      4 C          13.0787   40.1687    9.8722 C.3     1  UNL1        0.0418
      5 C          14.2339   39.2863    9.4033 C.3     1  UNL1        0.0744
      6 N          14.1098   37.9373    9.9626 N.3     1  UNL1       -0.2688
      7 C          10.4873   39.5040    6.1459 C.ar    1  UNL1        0.1230
      8 C          11.6434   40.2444    5.9246 C.ar    1  UNL1        0.0565
      9 C          12.2167   40.3252    7.1800 C.ar    1  UNL1        0.1328
     10 N          11.4529   39.6796    8.0717 N.ar    1  UNL1       -0.2394
     11 N          10.3992   39.1770    7.4524 N.ar    1  UNL1       -0.1666
     12 C          13.9612   42.1622    6.8789 C.2     1  UNL1        0.2521
     13 O          13.3320   42.7042    5.9296 O.2     1  UNL1       -0.2697
     14 N          13.4415   40.9885    7.5188 N.am    1  UNL1       -0.2660
     15 H          13.9719   40.6054    8.2545 H       1  UNL1        0.1566
     16 C          15.2386   42.7378    7.3338 C.ar    1  UNL1        0.0728
     17 C          15.6297   44.0215    6.9305 C.ar    1  UNL1        0.1034
     18 C          17.6436   43.8502    8.1765 C.ar    1  UNL1        0.0989
     19 C          17.2953   42.5676    8.6040 C.ar    1  UNL1        0.0208
     20 C          16.0874   42.0128    8.1788 C.ar    1  UNL1        0.0077
     21 N          16.8111   44.5449    7.3558 N.ar    1  UNL1       -0.2422
     22 C          15.2739   37.1329    9.5645 C.3     1  UNL1        0.0989
     23 C          15.9672   35.4446    7.8970 C.2     1  UNL1       -0.0002
     24 C          15.0620   36.3240    8.3124 C.2     1  UNL1       -0.0087
     25 C          15.7162   33.2239    6.6594 C.ar    1  UNL1        0.1386
     26 C          15.8440   34.6350    6.6696 C.ar    1  UNL1        0.0337
     27 C          15.8427   35.3326    5.4560 C.ar    1  UNL1        0.0030
     28 C          15.7227   34.6554    4.2414 C.ar    1  UNL1        0.0002
     29 C          15.6003   33.2666    4.2274 C.ar    1  UNL1        0.0031
     30 C          15.5966   32.5558    5.4282 C.ar    1  UNL1        0.0369
     31 C          14.6618   31.6052    8.2138 C.3     1  UNL1        0.2525
     32 O          15.7059   32.5020    7.8592 O.3     1  UNL1       -0.4714
@<TRIPOS>BOND
     1    31    32    1
     2    25    32    1
     3    26    23    1
     4    26    27   ar
     5    22    24    1
     6    22     6    1
     7     1     6    1
     8     1     2    1
     9     2     3    1
    10     3     4    1
    11     3    10    1
    12     4     5    1
    13     5     6    1
    14     7     8   ar
    15     9    14    1
    16     9    10   ar
    17    12    16    1
    18    17    21   ar
    19    18    19   ar
    20    20    16   ar
    21    28    29   ar
    22    30    25   ar
    23    10    11   ar
    24    14    12   am
    25    25    26   ar
    26    23    24    2
    27     7    11   ar
    28     8     9   ar
    29    12    13    2
    30    16    17   ar
    31    18    21   ar
    32    19    20   ar
    33    27    28   ar
    34    29    30   ar
    35    14    15    1
