@<TRIPOS>MOLECULE
MolPort-002-989-525 9427031 CSSS00132429902 MCULE-2605706855 PubChem-3636262 ZINC000009427031 ZINC09427031
 23 25 0 0 0
SMALL
GASTEIGER

@<TRIPOS>ATOM
      1 C           0.7206   42.3831   13.3684 C.2     1  UNL1        0.2586
      2 N           2.1240   42.1386   13.2215 N.am    1  UNL1       -0.2475
      3 O          -0.0182   42.4674   12.3505 O.2     1  UNL1       -0.2692
      4 H           2.6631   42.0803   14.0432 H       1  UNL1        0.1581
      5 C           0.1210   42.5394   14.7070 C.ar    1  UNL1        0.0937
      6 C          -0.9548   41.8209   15.2566 C.ar    1  UNL1        0.0685
      7 C          -1.2634   42.2333   16.5605 C.ar    1  UNL1        0.0172
      8 C          -2.2760   41.7168   17.3741 C.ar    1  UNL1        0.0014
      9 C          -2.4468   42.2503   18.6620 C.ar    1  UNL1        0.0001
     10 C          -1.6122   43.2860   19.1225 C.ar    1  UNL1        0.0005
     11 C          -0.5977   43.7998   18.3007 C.ar    1  UNL1        0.0065
     12 C          -0.4493   43.2536   17.0287 C.ar    1  UNL1        0.0304
     13 CL         -1.8426   40.5408   14.4361 Cl      1  UNL1       -0.0816
     14 S           0.6647   43.6682   15.8489 S.2     1  UNL1       -0.0816
     15 C           2.8035   41.9726   11.9735 C.ar    1  UNL1        0.2619
     16 N           4.3028   41.5685   10.5739 N.ar    1  UNL1       -0.1497
     17 N           3.2161   41.9063    9.9016 N.ar    1  UNL1       -0.0438
     18 N           2.2458   42.1714   10.7616 N.ar    1  UNL1       -0.0918
     19 N           4.0901   41.5918   11.8784 N.ar    1  UNL1       -0.1137
     20 C           5.5608   41.1923    9.9516 C.3     1  UNL1        0.1514
     21 C           5.4673   41.3604    8.4442 C.3     1  UNL1        0.0283
     22 C           7.9420   41.1753    8.6809 C.3     1  UNL1        0.0001
     23 C           6.8095   41.7816    7.8735 C.3     1  UNL1        0.0021
@<TRIPOS>BOND
     1    22    23    1
     2    23    21    1
     3    21    20    1
     4    20    16    1
     5    15    18   ar
     6    15     2    1
     7     1     5    1
     8     5    14   ar
     9     6    13    1
    10     6     7   ar
    11     8     9   ar
    12    10    11   ar
    13    12    14   ar
    14    12     7   ar
    15    16    17   ar
    16    16    19   ar
    17     2     1   am
    18    15    19   ar
    19     1     3    2
    20     5     6   ar
    21     7     8   ar
    22     9    10   ar
    23    11    12   ar
    24    17    18   ar
    25     2     4    1
@<TRIPOS>MOLECULE
MolPort-002-989-525 9427031 CSSS00132429902 MCULE-2605706855 PubChem-3636262 ZINC000009427031 ZINC09427031
 23 25 0 0 0
SMALL
GASTEIGER

@<TRIPOS>ATOM
      1 C          12.1525   41.7340    6.8912 C.2     1  UNL1        0.2586
      2 N          11.6077   41.3457    5.6251 N.am    1  UNL1       -0.2475
      3 O          11.4515   41.6501    7.9356 O.2     1  UNL1       -0.2692
      4 H          12.1904   41.4276    4.8358 H       1  UNL1        0.1581
      5 C          13.5358   42.2359    6.9922 C.ar    1  UNL1        0.0937
      6 C          14.5737   41.7398    7.7999 C.ar    1  UNL1        0.0685
      7 C          15.7651   42.4620    7.6438 C.ar    1  UNL1        0.0172
      8 C          16.9731   42.2186    8.3038 C.ar    1  UNL1        0.0014
      9 C          18.0741   43.0451    8.0259 C.ar    1  UNL1        0.0001
     10 C          17.9604   44.0986    7.0993 C.ar    1  UNL1        0.0005
     11 C          16.7450   44.3375    6.4403 C.ar    1  UNL1        0.0065
     12 C          15.6691   43.5038    6.7336 C.ar    1  UNL1        0.0304
     13 CL         14.4369   40.3699    8.8974 Cl      1  UNL1       -0.0816
     14 S          14.1182   43.5570    6.1038 S.2     1  UNL1       -0.0816
     15 C          10.2825   40.8479    5.4179 C.ar    1  UNL1        0.2619
     16 N           8.2599   40.4154    5.7218 N.ar    1  UNL1       -0.1497
     17 N           8.6021   39.9013    4.5532 N.ar    1  UNL1       -0.0438
     18 N           9.8816   40.1567    4.3313 N.ar    1  UNL1       -0.0918
     19 N           9.2819   41.0233    6.2995 N.ar    1  UNL1       -0.1137
     20 C           6.9214   40.3430    6.2822 C.3     1  UNL1        0.1514
     21 C           6.6610   41.5504    7.1674 C.3     1  UNL1        0.0283
     22 C           6.1206   43.9840    7.1563 C.3     1  UNL1        0.0001
     23 C           6.6579   42.8234    6.3401 C.3     1  UNL1        0.0021
@<TRIPOS>BOND
     1    22    23    1
     2    23    21    1
     3    21    20    1
     4    20    16    1
     5    15    18   ar
     6    15     2    1
     7     1     5    1
     8     5    14   ar
     9     6    13    1
    10     6     7   ar
    11     8     9   ar
    12    10    11   ar
    13    12    14   ar
    14    12     7   ar
    15    16    17   ar
    16    16    19   ar
    17     2     1   am
    18    15    19   ar
    19     1     3    2
    20     5     6   ar
    21     7     8   ar
    22     9    10   ar
    23    11    12   ar
    24    17    18   ar
    25     2     4    1
@<TRIPOS>MOLECULE
MolPort-002-989-525 9427031 CSSS00132429902 MCULE-2605706855 PubChem-3636262 ZINC000009427031 ZINC09427031
 23 25 0 0 0
SMALL
GASTEIGER

@<TRIPOS>ATOM
      1 C          10.4329   42.6350    9.0808 C.2     1  UNL1        0.2586
      2 N          10.9883   42.0683    7.8886 N.am    1  UNL1       -0.2475
      3 O          11.1622   43.2978    9.8670 O.2     1  UNL1       -0.2692
      4 H          10.3826   41.5583    7.3035 H       1  UNL1        0.1581
      5 C           9.0057   42.4524    9.4055 C.ar    1  UNL1        0.0937
      6 C           8.4546   41.8198   10.5332 C.ar    1  UNL1        0.0685
      7 C           7.0527   41.8270   10.5192 C.ar    1  UNL1        0.0172
      8 C           6.2125   41.2804   11.4935 C.ar    1  UNL1        0.0014
      9 C           4.8222   41.3776   11.3192 C.ar    1  UNL1        0.0001
     10 C           4.2876   42.0145   10.1835 C.ar    1  UNL1        0.0005
     11 C           5.1367   42.5611    9.2094 C.ar    1  UNL1        0.0065
     12 C           6.5106   42.4513    9.4059 C.ar    1  UNL1        0.0304
     13 CL          9.3820   41.0879   11.8386 Cl      1  UNL1       -0.0816
     14 S           7.7440   43.0059    8.4179 S.2     1  UNL1       -0.0816
     15 C          12.3549   42.1855    7.4818 C.ar    1  UNL1        0.2619
     16 N          14.1015   42.9184    6.5971 N.ar    1  UNL1       -0.1497
     17 N          14.4166   41.7980    7.2234 N.ar    1  UNL1       -0.0438
     18 N          13.3286   41.3060    7.7941 N.ar    1  UNL1       -0.0918
     19 N          12.8181   43.2041    6.7353 N.ar    1  UNL1       -0.1137
     20 C          15.0549   43.7425    5.8740 C.3     1  UNL1        0.1514
     21 C          16.0669   44.3373    6.8391 C.3     1  UNL1        0.0283
     22 C          18.2328   43.9550    8.0125 C.3     1  UNL1        0.0001
     23 C          17.1342   43.3145    7.1850 C.3     1  UNL1        0.0021
@<TRIPOS>BOND
     1    22    23    1
     2    23    21    1
     3    21    20    1
     4    20    16    1
     5    15    18   ar
     6    15     2    1
     7     1     5    1
     8     5    14   ar
     9     6    13    1
    10     6     7   ar
    11     8     9   ar
    12    10    11   ar
    13    12    14   ar
    14    12     7   ar
    15    16    17   ar
    16    16    19   ar
    17     2     1   am
    18    15    19   ar
    19     1     3    2
    20     5     6   ar
    21     7     8   ar
    22     9    10   ar
    23    11    12   ar
    24    17    18   ar
    25     2     4    1
@<TRIPOS>MOLECULE
MolPort-002-989-525 9427031 CSSS00132429902 MCULE-2605706855 PubChem-3636262 ZINC000009427031 ZINC09427031
 23 25 0 0 0
SMALL
GASTEIGER

@<TRIPOS>ATOM
      1 C          12.0280   41.4963    7.0848 C.2     1  UNL1        0.2586
      2 N          11.2541   41.5535    5.8812 N.am    1  UNL1       -0.2475
      3 O          11.5503   40.9601    8.1209 O.2     1  UNL1       -0.2692
      4 H          11.6664   41.9812    5.0962 H       1  UNL1        0.1581
      5 C          13.3897   42.0615    7.1303 C.ar    1  UNL1        0.0937
      6 C          14.4857   41.6045    7.8824 C.ar    1  UNL1        0.0685
      7 C          15.6338   42.3841    7.6832 C.ar    1  UNL1        0.0172
      8 C          16.8809   42.1893    8.2838 C.ar    1  UNL1        0.0014
      9 C          17.9283   43.0704    7.9687 C.ar    1  UNL1        0.0001
     10 C          17.7231   44.1292    7.0642 C.ar    1  UNL1        0.0005
     11 C          16.4688   44.3190    6.4648 C.ar    1  UNL1        0.0065
     12 C          15.4475   43.4319    6.7941 C.ar    1  UNL1        0.0304
     13 CL         14.4635   40.2156    8.9642 Cl      1  UNL1       -0.0816
     14 S          13.8684   43.4200    6.2364 S.2     1  UNL1       -0.0816
     15 C           9.9282   41.0374    5.7309 C.ar    1  UNL1        0.2619
     16 N           7.9275   40.5746    6.1225 N.ar    1  UNL1       -0.1497
     17 N           8.2247   40.0699    4.9376 N.ar    1  UNL1       -0.0438
     18 N           9.4892   40.3445    4.6602 N.ar    1  UNL1       -0.0918
     19 N           8.9653   41.1951    6.6569 N.ar    1  UNL1       -0.1137
     20 C           6.6163   40.4808    6.7414 C.3     1  UNL1        0.1514
     21 C           6.6385   41.1386    8.1111 C.3     1  UNL1        0.0283
     22 C           5.2270   41.1370   10.1659 C.3     1  UNL1        0.0001
     23 C           5.2280   41.2778    8.6552 C.3     1  UNL1        0.0021
@<TRIPOS>BOND
     1    22    23    1
     2    23    21    1
     3    21    20    1
     4    20    16    1
     5    15    18   ar
     6    15     2    1
     7     1     5    1
     8     5    14   ar
     9     6    13    1
    10     6     7   ar
    11     8     9   ar
    12    10    11   ar
    13    12    14   ar
    14    12     7   ar
    15    16    17   ar
    16    16    19   ar
    17     2     1   am
    18    15    19   ar
    19     1     3    2
    20     5     6   ar
    21     7     8   ar
    22     9    10   ar
    23    11    12   ar
    24    17    18   ar
    25     2     4    1
@<TRIPOS>MOLECULE
MolPort-002-989-525 9427031 CSSS00132429902 MCULE-2605706855 PubChem-3636262 ZINC000009427031 ZINC09427031
 23 25 0 0 0
SMALL
GASTEIGER

@<TRIPOS>ATOM
      1 C          11.8778   41.7651    6.3891 C.2     1  UNL1        0.2586
      2 N          10.7668   42.2925    7.1228 N.am    1  UNL1       -0.2475
      3 O          11.6909   40.9035    5.4880 O.2     1  UNL1       -0.2692
      4 H          10.9588   42.9633    7.8174 H       1  UNL1        0.1581
      5 C          13.2515   42.2198    6.6754 C.ar    1  UNL1        0.0937
      6 C          14.1752   41.6543    7.5713 C.ar    1  UNL1        0.0685
      7 C          15.3939   42.3471    7.5917 C.ar    1  UNL1        0.0172
      8 C          16.5099   42.0358    8.3738 C.ar    1  UNL1        0.0014
      9 C          17.6555   42.8414    8.2684 C.ar    1  UNL1        0.0001
     10 C          17.6768   43.9413    7.3903 C.ar    1  UNL1        0.0005
     11 C          16.5532   44.2482    6.6080 C.ar    1  UNL1        0.0065
     12 C          15.4305   43.4340    6.7314 C.ar    1  UNL1        0.0304
     13 CL         13.8775   40.2377    8.5736 Cl      1  UNL1       -0.0816
     14 S          13.9659   43.5641    5.9297 S.2     1  UNL1       -0.0816
     15 C           9.3996   41.9205    6.9250 C.ar    1  UNL1        0.2619
     16 N           7.4253   41.3544    7.3150 N.ar    1  UNL1       -0.1497
     17 N           7.5569   41.4489    6.0032 N.ar    1  UNL1       -0.0438
     18 N           8.8003   41.8046    5.7222 N.ar    1  UNL1       -0.0918
     19 N           8.5556   41.6457    7.9357 N.ar    1  UNL1       -0.1137
     20 C           6.1853   41.0024    7.9853 C.3     1  UNL1        0.1514
     21 C           5.9995   41.8637    9.2234 C.3     1  UNL1        0.0283
     22 C           3.8333   43.0970    9.1897 C.3     1  UNL1        0.0001
     23 C           5.3132   43.1690    8.8630 C.3     1  UNL1        0.0021
@<TRIPOS>BOND
     1    22    23    1
     2    23    21    1
     3    21    20    1
     4    20    16    1
     5    15    18   ar
     6    15     2    1
     7     1     5    1
     8     5    14   ar
     9     6    13    1
    10     6     7   ar
    11     8     9   ar
    12    10    11   ar
    13    12    14   ar
    14    12     7   ar
    15    16    17   ar
    16    16    19   ar
    17     2     1   am
    18    15    19   ar
    19     1     3    2
    20     5     6   ar
    21     7     8   ar
    22     9    10   ar
    23    11    12   ar
    24    17    18   ar
    25     2     4    1
@<TRIPOS>MOLECULE
MolPort-002-989-525 9427031 CSSS00132429902 MCULE-2605706855 PubChem-3636262 ZINC000009427031 ZINC09427031
 23 25 0 0 0
SMALL
GASTEIGER

@<TRIPOS>ATOM
      1 C          12.2245   41.6181    7.3229 C.2     1  UNL1        0.2586
      2 N          11.1948   42.2737    8.0717 N.am    1  UNL1       -0.2475
      3 O          11.9618   40.5794    6.6585 O.2     1  UNL1       -0.2692
      4 H          11.4444   43.0815    8.5759 H       1  UNL1        0.1581
      5 C          13.6019   42.1456    7.3179 C.ar    1  UNL1        0.0937
      6 C          14.7062   41.6735    8.0484 C.ar    1  UNL1        0.0685
      7 C          15.8690   42.4162    7.8003 C.ar    1  UNL1        0.0172
      8 C          17.1271   42.1989    8.3695 C.ar    1  UNL1        0.0014
      9 C          18.1888   43.0435    8.0062 C.ar    1  UNL1        0.0001
     10 C          17.9870   44.0887    7.0854 C.ar    1  UNL1        0.0005
     11 C          16.7216   44.3014    6.5176 C.ar    1  UNL1        0.0065
     12 C          15.6862   43.4503    6.8946 C.ar    1  UNL1        0.0304
     13 CL         14.6768   40.3084    9.1599 Cl      1  UNL1       -0.0816
     14 S          14.0920   43.4713    6.3819 S.2     1  UNL1       -0.0816
     15 C           9.8314   41.8460    8.1439 C.ar    1  UNL1        0.2619
     16 N           7.8812   41.3448    7.5821 N.ar    1  UNL1       -0.1497
     17 N           7.9771   41.1551    8.8866 N.ar    1  UNL1       -0.0438
     18 N           9.2031   41.4666    9.2755 N.ar    1  UNL1       -0.0918
     19 N           9.0224   41.7744    7.0716 N.ar    1  UNL1       -0.1137
     20 C           6.6793   41.0850    6.8081 C.3     1  UNL1        0.1514
     21 C           6.6453   39.6299    6.3711 C.3     1  UNL1        0.0283
     22 C           8.6699   38.2344    6.7807 C.3     1  UNL1        0.0001
     23 C           7.9990   39.2073    5.8292 C.3     1  UNL1        0.0021
@<TRIPOS>BOND
     1    22    23    1
     2    23    21    1
     3    21    20    1
     4    20    16    1
     5    15    18   ar
     6    15     2    1
     7     1     5    1
     8     5    14   ar
     9     6    13    1
    10     6     7   ar
    11     8     9   ar
    12    10    11   ar
    13    12    14   ar
    14    12     7   ar
    15    16    17   ar
    16    16    19   ar
    17     2     1   am
    18    15    19   ar
    19     1     3    2
    20     5     6   ar
    21     7     8   ar
    22     9    10   ar
    23    11    12   ar
    24    17    18   ar
    25     2     4    1
@<TRIPOS>MOLECULE
MolPort-002-989-525 9427031 CSSS00132429902 MCULE-2605706855 PubChem-3636262 ZINC000009427031 ZINC09427031
 23 25 0 0 0
SMALL
GASTEIGER

@<TRIPOS>ATOM
      1 C          11.7986   41.4974    6.6608 C.2     1  UNL1        0.2586
      2 N          10.6952   41.9790    7.4363 N.am    1  UNL1       -0.2475
      3 O          11.5925   40.8482    5.6000 O.2     1  UNL1       -0.2692
      4 H          10.9023   42.4812    8.2573 H       1  UNL1        0.1581
      5 C          13.1867   41.7525    7.0894 C.ar    1  UNL1        0.0937
      6 C          14.0613   42.7492    6.6232 C.ar    1  UNL1        0.0685
      7 C          15.3123   42.7013    7.2541 C.ar    1  UNL1        0.0172
      8 C          16.3940   43.5532    7.0129 C.ar    1  UNL1        0.0014
      9 C          17.5806   43.3620    7.7397 C.ar    1  UNL1        0.0001
     10 C          17.6759   42.3307    8.6928 C.ar    1  UNL1        0.0005
     11 C          16.5863   41.4791    8.9301 C.ar    1  UNL1        0.0065
     12 C          15.4219   41.6899    8.1964 C.ar    1  UNL1        0.0304
     13 CL         13.6713   43.9426    5.3888 Cl      1  UNL1       -0.0816
     14 S          13.9835   40.8355    8.2719 S.2     1  UNL1       -0.0816
     15 C           9.3154   41.7869    7.1108 C.ar    1  UNL1        0.2619
     16 N           7.2828   41.3332    7.2926 N.ar    1  UNL1       -0.1497
     17 N           7.4946   41.7009    6.0408 N.ar    1  UNL1       -0.0438
     18 N           8.7766   41.9936    5.8917 N.ar    1  UNL1       -0.0918
     19 N           8.3967   41.3758    8.0032 N.ar    1  UNL1       -0.1137
     20 C           5.9826   40.9583    7.8218 C.3     1  UNL1        0.1514
     21 C           5.8802   41.3583    9.2842 C.3     1  UNL1        0.0283
     22 C           4.1184   43.1114    9.0919 C.3     1  UNL1        0.0001
     23 C           4.4509   41.7332    9.6324 C.3     1  UNL1        0.0021
@<TRIPOS>BOND
     1    22    23    1
     2    23    21    1
     3    21    20    1
     4    20    16    1
     5    15    18   ar
     6    15     2    1
     7     1     5    1
     8     5    14   ar
     9     6    13    1
    10     6     7   ar
    11     8     9   ar
    12    10    11   ar
    13    12    14   ar
    14    12     7   ar
    15    16    17   ar
    16    16    19   ar
    17     2     1   am
    18    15    19   ar
    19     1     3    2
    20     5     6   ar
    21     7     8   ar
    22     9    10   ar
    23    11    12   ar
    24    17    18   ar
    25     2     4    1
@<TRIPOS>MOLECULE
MolPort-002-989-525 9427031 CSSS00132429902 MCULE-2605706855 PubChem-3636262 ZINC000009427031 ZINC09427031
 23 25 0 0 0
SMALL
GASTEIGER

@<TRIPOS>ATOM
      1 C          10.5755   40.3665    8.9798 C.2     1  UNL1        0.2586
      2 N          10.7554   41.5604    9.7499 N.am    1  UNL1       -0.2475
      3 O           9.5993   40.2634    8.1887 O.2     1  UNL1       -0.2692
      4 H          11.5311   41.5977   10.3549 H       1  UNL1        0.1581
      5 C          11.5252   39.2443    9.0999 C.ar    1  UNL1        0.0937
      6 C          12.9081   39.2575    8.8486 C.ar    1  UNL1        0.0685
      7 C          13.5034   38.0070    9.0655 C.ar    1  UNL1        0.0172
      8 C          14.8564   37.6952    8.9037 C.ar    1  UNL1        0.0014
      9 C          15.2842   36.3835    9.1664 C.ar    1  UNL1        0.0001
     10 C          14.3653   35.4029    9.5850 C.ar    1  UNL1        0.0005
     11 C          13.0086   35.7225    9.7455 C.ar    1  UNL1        0.0065
     12 C          12.6104   37.0297    9.4785 C.ar    1  UNL1        0.0304
     13 CL         13.8283   40.6624    8.3201 Cl      1  UNL1       -0.0816
     14 S          11.0726   37.6843    9.5848 S.2     1  UNL1       -0.0816
     15 C           9.8953   42.7030    9.7085 C.ar    1  UNL1        0.2619
     16 N           8.2882   43.9555    9.2411 N.ar    1  UNL1       -0.1497
     17 N           9.0898   44.6270   10.0495 N.ar    1  UNL1       -0.0438
     18 N          10.1217   43.8602   10.3633 N.ar    1  UNL1       -0.0918
     19 N           8.7512   42.7405    9.0022 N.ar    1  UNL1       -0.1137
     20 C           7.0428   44.4812    8.7086 C.3     1  UNL1        0.1514
     21 C           6.0947   43.3405    8.3780 C.3     1  UNL1        0.0283
     22 C           4.1883   44.8282    7.7723 C.3     1  UNL1        0.0001
     23 C           4.6638   43.7291    8.7039 C.3     1  UNL1        0.0021
@<TRIPOS>BOND
     1    22    23    1
     2    23    21    1
     3    21    20    1
     4    20    16    1
     5    15    18   ar
     6    15     2    1
     7     1     5    1
     8     5    14   ar
     9     6    13    1
    10     6     7   ar
    11     8     9   ar
    12    10    11   ar
    13    12    14   ar
    14    12     7   ar
    15    16    17   ar
    16    16    19   ar
    17     2     1   am
    18    15    19   ar
    19     1     3    2
    20     5     6   ar
    21     7     8   ar
    22     9    10   ar
    23    11    12   ar
    24    17    18   ar
    25     2     4    1
@<TRIPOS>MOLECULE
MolPort-002-989-525 9427031 CSSS00132429902 MCULE-2605706855 PubChem-3636262 ZINC000009427031 ZINC09427031
 23 25 0 0 0
SMALL
GASTEIGER

@<TRIPOS>ATOM
      1 C           9.8184   42.5176    8.9074 C.2     1  UNL1        0.2586
      2 N          10.5618   41.7050    7.9921 N.am    1  UNL1       -0.2475
      3 O          10.4187   43.3043    9.6885 O.2     1  UNL1       -0.2692
      4 H          10.0524   41.1051    7.4006 H       1  UNL1        0.1581
      5 C           8.3457   42.4466    8.9502 C.ar    1  UNL1        0.0937
      6 C           7.4341   43.5158    8.9900 C.ar    1  UNL1        0.0685
      7 C           6.1015   43.0818    9.0243 C.ar    1  UNL1        0.0172
      8 C           4.9665   43.8967    9.0677 C.ar    1  UNL1        0.0014
      9 C           3.6998   43.2909    9.0980 C.ar    1  UNL1        0.0001
     10 C           3.5782   41.8887    9.0847 C.ar    1  UNL1        0.0005
     11 C           4.7215   41.0765    9.0411 C.ar    1  UNL1        0.0065
     12 C           5.9651   41.7019    9.0118 C.ar    1  UNL1        0.0304
     13 CL          7.8723   45.2210    8.9975 Cl      1  UNL1       -0.0816
     14 S           7.4797   40.9893    8.9583 S.2     1  UNL1       -0.0816
     15 C          11.9873   41.6971    7.8704 C.ar    1  UNL1        0.2619
     16 N          14.0055   41.3154    8.2591 N.ar    1  UNL1       -0.1497
     17 N          13.9467   42.0441    7.1580 N.ar    1  UNL1       -0.0438
     18 N          12.6785   42.3056    6.8849 N.ar    1  UNL1       -0.0918
     19 N          12.7990   41.0689    8.7398 N.ar    1  UNL1       -0.1137
     20 C          15.2412   40.8260    8.8462 C.3     1  UNL1        0.1514
     21 C          15.0376   39.4240    9.3960 C.3     1  UNL1        0.0283
     22 C          15.0207   38.1334   11.5287 C.3     1  UNL1        0.0001
     23 C          14.7354   39.4763   10.8828 C.3     1  UNL1        0.0021
@<TRIPOS>BOND
     1    22    23    1
     2    23    21    1
     3    21    20    1
     4    20    16    1
     5    15    18   ar
     6    15     2    1
     7     1     5    1
     8     5    14   ar
     9     6    13    1
    10     6     7   ar
    11     8     9   ar
    12    10    11   ar
    13    12    14   ar
    14    12     7   ar
    15    16    17   ar
    16    16    19   ar
    17     2     1   am
    18    15    19   ar
    19     1     3    2
    20     5     6   ar
    21     7     8   ar
    22     9    10   ar
    23    11    12   ar
    24    17    18   ar
    25     2     4    1
@<TRIPOS>MOLECULE
MolPort-002-989-525 9427031 CSSS00132429902 MCULE-2605706855 PubChem-3636262 ZINC000009427031 ZINC09427031
 23 25 0 0 0
SMALL
GASTEIGER

@<TRIPOS>ATOM
      1 C          12.3801   41.6224    7.8906 C.2     1  UNL1        0.2586
      2 N          13.2516   40.6647    8.5022 N.am    1  UNL1       -0.2475
      3 O          12.8424   42.7088    7.4487 O.2     1  UNL1       -0.2692
      4 H          12.8480   39.8300    8.8332 H       1  UNL1        0.1581
      5 C          10.9349   41.3535    7.7691 C.ar    1  UNL1        0.0937
      6 C          10.2710   40.6725    6.7341 C.ar    1  UNL1        0.0685
      7 C           8.8866   40.6002    6.9429 C.ar    1  UNL1        0.0172
      8 C           7.9531   39.9910    6.0995 C.ar    1  UNL1        0.0014
      9 C           6.5971   40.0116    6.4646 C.ar    1  UNL1        0.0001
     10 C           6.1884   40.6350    7.6586 C.ar    1  UNL1        0.0005
     11 C           7.1306   41.2446    8.5008 C.ar    1  UNL1        0.0065
     12 C           8.4682   41.2102    8.1158 C.ar    1  UNL1        0.0304
     13 CL         11.0501   39.9739    5.3182 Cl      1  UNL1       -0.0816
     14 S           9.7917   41.8499    8.9182 S.2     1  UNL1       -0.0816
     15 C          14.6632   40.8265    8.6695 C.ar    1  UNL1        0.2619
     16 N          16.5963   41.6106    8.5323 N.ar    1  UNL1       -0.1497
     17 N          16.6670   40.5121    9.2639 N.ar    1  UNL1       -0.0438
     18 N          15.4561   39.9885    9.3683 N.ar    1  UNL1       -0.0918
     19 N          15.3568   41.8504    8.1403 N.ar    1  UNL1       -0.1137
     20 C          17.7354   42.4587    8.2251 C.3     1  UNL1        0.1514
     21 C          17.2828   43.9001    8.0619 C.3     1  UNL1        0.0283
     22 C          15.8666   44.7986    6.2176 C.3     1  UNL1        0.0001
     23 C          17.2422   44.2798    6.5926 C.3     1  UNL1        0.0021
@<TRIPOS>BOND
     1    22    23    1
     2    23    21    1
     3    21    20    1
     4    20    16    1
     5    15    18   ar
     6    15     2    1
     7     1     5    1
     8     5    14   ar
     9     6    13    1
    10     6     7   ar
    11     8     9   ar
    12    10    11   ar
    13    12    14   ar
    14    12     7   ar
    15    16    17   ar
    16    16    19   ar
    17     2     1   am
    18    15    19   ar
    19     1     3    2
    20     5     6   ar
    21     7     8   ar
    22     9    10   ar
    23    11    12   ar
    24    17    18   ar
    25     2     4    1
