@<TRIPOS>MOLECULE
Molport-020-292-983 CHEMBL3504835 CHEMBL3550852 MCULE-5536403963 MCULE-9979805251 PubChem-110265450 PubChem-118747446
 23 25 0 0 0
SMALL
GASTEIGER

@<TRIPOS>ATOM
      1 C          11.6015   39.9677    9.0428 C.ar    1  UNL1        0.0614
      2 C          11.4434   39.6348   10.3949 C.ar    1  UNL1        0.0149
      3 C          12.5627   39.6047   11.2258 C.ar    1  UNL1        0.0041
      4 C          13.8213   39.9045   10.7050 C.ar    1  UNL1        0.0345
      5 C          13.9501   40.2341    9.3488 C.ar    1  UNL1        0.1339
      6 N          12.8408   40.2561    8.5603 N.ar    1  UNL1       -0.2348
      7 C           8.6415   41.6361    6.3418 C.3     1  UNL1        0.0896
      8 C           9.1159   39.3998    5.6128 C.3     1  UNL1        0.0722
      9 C           8.6962   38.7039    6.9112 C.3     1  UNL1        0.0178
     10 C           9.8846   38.6136    7.8539 C.3     1  UNL1        0.0087
     11 C          10.4293   40.0119    8.1151 C.3     1  UNL1        0.0563
     12 C          10.8003   40.6948    6.7915 C.3     1  UNL1        0.0780
     13 N           9.6774   40.7384    5.8444 N.3     1  UNL1       -0.2712
     14 N          15.2210   40.5507    8.7631 N.pl3   1  UNL1       -0.2680
     15 H          15.9165   39.8572    8.8309 H       1  UNL1        0.1565
     16 C          15.5954   41.7605    8.0901 C.ar    1  UNL1        0.2211
     17 C          15.0307   43.4824    6.5678 C.ar    1  UNL1        0.0634
     18 C          14.0525   44.0910    5.6291 C.3     1  UNL1        0.0522
     19 C          16.2694   44.0873    6.7720 C.ar    1  UNL1        0.0296
     20 C          17.1593   43.4860    7.6599 C.ar    1  UNL1        0.0634
     21 C          18.4907   44.0978    7.9069 C.3     1  UNL1        0.0522
     22 N          14.7175   42.3363    7.2266 N.ar    1  UNL1       -0.2179
     23 N          16.8092   42.3401    8.2997 N.ar    1  UNL1       -0.2179
@<TRIPOS>BOND
     1     7    13    1
     2     8    13    1
     3     8     9    1
     4     9    10    1
     5    10    11    1
     6    11    12    1
     7    11     1    1
     8    12    13    1
     9     1     6   ar
    10     2     3   ar
    11     4     5   ar
    12     5    14    1
    13    16    23   ar
    14    17    22   ar
    15    18    17    1
    16    19    20   ar
    17    21    20    1
    18    14    16    1
    19     1     2   ar
    20     3     4   ar
    21     5     6   ar
    22    16    22   ar
    23    17    19   ar
    24    20    23   ar
    25    14    15    1
@<TRIPOS>MOLECULE
Molport-020-292-983 CHEMBL3504835 CHEMBL3550852 MCULE-5536403963 MCULE-9979805251 PubChem-110265450 PubChem-118747446
 23 25 0 0 0
SMALL
GASTEIGER

@<TRIPOS>ATOM
      1 C           8.6201   41.0137    6.7163 C.ar    1  UNL1        0.0614
      2 C           8.6935   39.6331    6.4876 C.ar    1  UNL1        0.0149
      3 C           9.8752   39.0857    5.9894 C.ar    1  UNL1        0.0041
      4 C          10.9658   39.9139    5.7251 C.ar    1  UNL1        0.0345
      5 C          10.8643   41.2913    5.9632 C.ar    1  UNL1        0.1339
      6 N           9.6989   41.7992    6.4500 N.ar    1  UNL1       -0.2348
      7 C           4.9849   41.4462    9.0484 C.3     1  UNL1        0.0896
      8 C           5.9723   43.6219    8.8265 C.3     1  UNL1        0.0722
      9 C           5.9385   43.6698    7.2958 C.3     1  UNL1        0.0178
     10 C           7.2160   43.0688    6.7339 C.3     1  UNL1        0.0087
     11 C           7.3730   41.6440    7.2493 C.3     1  UNL1        0.0563
     12 C           7.3610   41.6285    8.7841 C.3     1  UNL1        0.0780
     13 N           6.1584   42.2593    9.3457 N.3     1  UNL1       -0.2712
     14 N          11.9558   42.1871    5.7085 N.pl3   1  UNL1       -0.2680
     15 H          11.8287   42.8305    4.9743 H       1  UNL1        0.1565
     16 C          13.2104   42.2537    6.3998 C.ar    1  UNL1        0.2211
     17 C          15.3165   43.3002    6.6661 C.ar    1  UNL1        0.0634
     18 C          16.2881   44.3452    6.2511 C.3     1  UNL1        0.0522
     19 C          15.6372   42.4216    7.6993 C.ar    1  UNL1        0.0296
     20 C          14.6997   41.4556    8.0592 C.ar    1  UNL1        0.0634
     21 C          15.0011   40.4989    9.1555 C.3     1  UNL1        0.0522
     22 N          14.1157   43.2011    6.0383 N.ar    1  UNL1       -0.2179
     23 N          13.5099   41.3885    7.4074 N.ar    1  UNL1       -0.2179
@<TRIPOS>BOND
     1     7    13    1
     2     8    13    1
     3     8     9    1
     4     9    10    1
     5    10    11    1
     6    11    12    1
     7    11     1    1
     8    12    13    1
     9     1     6   ar
    10     2     3   ar
    11     4     5   ar
    12     5    14    1
    13    16    23   ar
    14    17    22   ar
    15    18    17    1
    16    19    20   ar
    17    21    20    1
    18    14    16    1
    19     1     2   ar
    20     3     4   ar
    21     5     6   ar
    22    16    22   ar
    23    17    19   ar
    24    20    23   ar
    25    14    15    1
@<TRIPOS>MOLECULE
Molport-020-292-983 CHEMBL3504835 CHEMBL3550852 MCULE-5536403963 MCULE-9979805251 PubChem-110265450 PubChem-118747446
 23 25 0 0 0
SMALL
GASTEIGER

@<TRIPOS>ATOM
      1 C           8.9693   40.6681    7.0053 C.ar    1  UNL1        0.0614
      2 C           8.8789   39.5382    6.1811 C.ar    1  UNL1        0.0149
      3 C           9.8438   39.3333    5.1957 C.ar    1  UNL1        0.0041
      4 C          10.8832   40.2504    5.0414 C.ar    1  UNL1        0.0345
      5 C          10.9488   41.3717    5.8797 C.ar    1  UNL1        0.1339
      6 N           9.9937   41.5472    6.8335 N.ar    1  UNL1       -0.2348
      7 C           7.3880   41.6986   10.9140 C.3     1  UNL1        0.0896
      8 C           5.8284   42.4809    9.2668 C.3     1  UNL1        0.0722
      9 C           5.5454   41.1139    8.6362 C.3     1  UNL1        0.0178
     10 C           6.5405   40.8466    7.5194 C.3     1  UNL1        0.0087
     11 C           7.9566   40.9283    8.0746 C.3     1  UNL1        0.0563
     12 C           8.1918   42.2938    8.7349 C.3     1  UNL1        0.0780
     13 N           7.2017   42.5944    9.7784 N.3     1  UNL1       -0.2712
     14 N          11.9965   42.3450    5.7631 N.pl3   1  UNL1       -0.2680
     15 H          11.8317   43.0896    5.1404 H       1  UNL1        0.1565
     16 C          13.2559   42.3588    6.4488 C.ar    1  UNL1        0.2211
     17 C          14.6729   41.4081    8.0889 C.ar    1  UNL1        0.0634
     18 C          14.9074   40.3840    9.1398 C.3     1  UNL1        0.0522
     19 C          15.6625   42.3446    7.7956 C.ar    1  UNL1        0.0296
     20 C          15.4048   43.2887    6.8038 C.ar    1  UNL1        0.0634
     21 C          16.4325   44.3052    6.4596 C.3     1  UNL1        0.0522
     22 N          13.4939   41.4318    7.4142 N.ar    1  UNL1       -0.2179
     23 N          14.2134   43.2798    6.1515 N.ar    1  UNL1       -0.2179
@<TRIPOS>BOND
     1     7    13    1
     2     8    13    1
     3     8     9    1
     4     9    10    1
     5    10    11    1
     6    11    12    1
     7    11     1    1
     8    12    13    1
     9     1     6   ar
    10     2     3   ar
    11     4     5   ar
    12     5    14    1
    13    16    23   ar
    14    17    22   ar
    15    18    17    1
    16    19    20   ar
    17    21    20    1
    18    14    16    1
    19     1     2   ar
    20     3     4   ar
    21     5     6   ar
    22    16    22   ar
    23    17    19   ar
    24    20    23   ar
    25    14    15    1
@<TRIPOS>MOLECULE
Molport-020-292-983 CHEMBL3504835 CHEMBL3550852 MCULE-5536403963 MCULE-9979805251 PubChem-110265450 PubChem-118747446
 23 25 0 0 0
SMALL
GASTEIGER

@<TRIPOS>ATOM
      1 C          11.3075   40.4084    9.1938 C.ar    1  UNL1        0.0614
      2 C          11.1911   39.9721   10.5205 C.ar    1  UNL1        0.0149
      3 C          12.3459   39.7496   11.2695 C.ar    1  UNL1        0.0041
      4 C          13.5981   39.9622   10.6933 C.ar    1  UNL1        0.0345
      5 C          13.6847   40.3985    9.3642 C.ar    1  UNL1        0.1339
      6 N          12.5414   40.6081    8.6559 N.ar    1  UNL1       -0.2348
      7 C           7.1092   40.8077    8.1662 C.3     1  UNL1        0.0896
      8 C           8.3379   42.3863    6.8411 C.3     1  UNL1        0.0722
      9 C           9.2292   41.3600    6.1349 C.3     1  UNL1        0.0178
     10 C          10.4859   41.1196    6.9545 C.3     1  UNL1        0.0087
     11 C          10.0962   40.6592    8.3532 C.3     1  UNL1        0.0563
     12 C           9.1709   41.6898    9.0147 C.3     1  UNL1        0.0780
     13 N           7.9779   41.9783    8.2067 N.3     1  UNL1       -0.2712
     14 N          14.9473   40.6323    8.7239 N.pl3   1  UNL1       -0.2680
     15 H          15.6020   39.8986    8.7715 H       1  UNL1        0.1565
     16 C          15.3658   41.8111    8.0226 C.ar    1  UNL1        0.2211
     17 C          17.0388   43.4372    7.6246 C.ar    1  UNL1        0.0634
     18 C          18.3942   43.9754    7.9098 C.3     1  UNL1        0.0522
     19 C          16.2160   44.0762    6.6990 C.ar    1  UNL1        0.0296
     20 C          14.9521   43.5410    6.4591 C.ar    1  UNL1        0.0634
     21 C          14.0429   44.1909    5.4798 C.3     1  UNL1        0.0522
     22 N          16.6015   42.3224    8.2664 N.ar    1  UNL1       -0.2179
     23 N          14.5511   42.4246    7.1209 N.ar    1  UNL1       -0.2179
@<TRIPOS>BOND
     1     7    13    1
     2     8    13    1
     3     8     9    1
     4     9    10    1
     5    10    11    1
     6    11    12    1
     7    11     1    1
     8    12    13    1
     9     1     6   ar
    10     2     3   ar
    11     4     5   ar
    12     5    14    1
    13    16    23   ar
    14    17    22   ar
    15    18    17    1
    16    19    20   ar
    17    21    20    1
    18    14    16    1
    19     1     2   ar
    20     3     4   ar
    21     5     6   ar
    22    16    22   ar
    23    17    19   ar
    24    20    23   ar
    25    14    15    1
@<TRIPOS>MOLECULE
Molport-020-292-983 CHEMBL3504835 CHEMBL3550852 MCULE-5536403963 MCULE-9979805251 PubChem-110265450 PubChem-118747446
 23 25 0 0 0
SMALL
GASTEIGER

@<TRIPOS>ATOM
      1 C           9.8975   41.9399    9.3430 C.ar    1  UNL1        0.0614
      2 C           9.7546   41.5126   10.6701 C.ar    1  UNL1        0.0149
      3 C          10.7678   40.7546   11.2558 C.ar    1  UNL1        0.0041
      4 C          11.9066   40.4311   10.5184 C.ar    1  UNL1        0.0345
      5 C          12.0228   40.8717    9.1930 C.ar    1  UNL1        0.1339
      6 N          11.0188   41.6104    8.6460 N.ar    1  UNL1       -0.2348
      7 C           6.8714   43.0313    6.4289 C.3     1  UNL1        0.0896
      8 C           6.1906   43.9151    8.5533 C.3     1  UNL1        0.0722
      9 C           7.4251   44.7942    8.7764 C.3     1  UNL1        0.0178
     10 C           8.5028   43.9961    9.4908 C.3     1  UNL1        0.0087
     11 C           8.8361   42.7542    8.6743 C.3     1  UNL1        0.0563
     12 C           7.5709   41.9190    8.4345 C.3     1  UNL1        0.0780
     13 N           6.4963   42.6924    7.7968 N.3     1  UNL1       -0.2712
     14 N          13.1728   40.5668    8.3909 N.pl3   1  UNL1       -0.2680
     15 H          13.2968   39.6204    8.1498 H       1  UNL1        0.1565
     16 C          14.1623   41.4813    7.8999 C.ar    1  UNL1        0.2211
     17 C          16.3781   42.3065    8.0041 C.ar    1  UNL1        0.0634
     18 C          17.7339   42.2605    8.6106 C.3     1  UNL1        0.0522
     19 C          16.0996   43.2201    6.9893 C.ar    1  UNL1        0.0296
     20 C          14.8164   43.2325    6.4461 C.ar    1  UNL1        0.0634
     21 C          14.4769   44.1905    5.3622 C.3     1  UNL1        0.0522
     22 N          15.4101   41.4582    8.4390 N.ar    1  UNL1       -0.2179
     23 N          13.8757   42.3683    6.9078 N.ar    1  UNL1       -0.2179
@<TRIPOS>BOND
     1     7    13    1
     2     8    13    1
     3     8     9    1
     4     9    10    1
     5    10    11    1
     6    11    12    1
     7    11     1    1
     8    12    13    1
     9     1     6   ar
    10     2     3   ar
    11     4     5   ar
    12     5    14    1
    13    16    23   ar
    14    17    22   ar
    15    18    17    1
    16    19    20   ar
    17    21    20    1
    18    14    16    1
    19     1     2   ar
    20     3     4   ar
    21     5     6   ar
    22    16    22   ar
    23    17    19   ar
    24    20    23   ar
    25    14    15    1
@<TRIPOS>MOLECULE
Molport-020-292-983 CHEMBL3504835 CHEMBL3550852 MCULE-5536403963 MCULE-9979805251 PubChem-110265450 PubChem-118747446
 23 25 0 0 0
SMALL
GASTEIGER

@<TRIPOS>ATOM
      1 C          13.9132   42.0001    7.2083 C.ar    1  UNL1        0.0614
      2 C          13.0291   42.3312    6.1726 C.ar    1  UNL1        0.0149
      3 C          11.6953   41.9346    6.2609 C.ar    1  UNL1        0.0041
      4 C          11.2575   41.2160    7.3733 C.ar    1  UNL1        0.0345
      5 C          12.1637   40.8986    8.3943 C.ar    1  UNL1        0.1339
      6 N          13.4601   41.2983    8.2825 N.ar    1  UNL1       -0.2348
      7 C          17.5348   43.8801    5.7284 C.3     1  UNL1        0.0896
      8 C          17.6347   43.8907    8.1257 C.3     1  UNL1        0.0722
      9 C          17.5513   42.3719    8.3072 C.3     1  UNL1        0.0178
     10 C          16.0963   41.9443    8.4025 C.3     1  UNL1        0.0087
     11 C          15.3522   42.4042    7.1555 C.3     1  UNL1        0.0563
     12 C          15.4913   43.9229    6.9819 C.3     1  UNL1        0.0780
     13 N          16.8936   44.3610    6.9467 N.3     1  UNL1       -0.2712
     14 N          11.7654   40.1618    9.5593 N.pl3   1  UNL1       -0.2680
     15 H          10.9187   40.4367    9.9798 H       1  UNL1        0.1565
     16 C          12.4579   39.0714   10.1820 C.ar    1  UNL1        0.2211
     17 C          14.3138   38.3122   11.4394 C.ar    1  UNL1        0.0634
     18 C          15.5870   38.6063   12.1470 C.3     1  UNL1        0.0522
     19 C          13.8267   37.0073   11.3953 C.ar    1  UNL1        0.0296
     20 C          12.6295   36.7720   10.7221 C.ar    1  UNL1        0.0634
     21 C          12.0745   35.3955   10.6509 C.3     1  UNL1        0.0522
     22 N          13.6248   39.3153   10.8354 N.ar    1  UNL1       -0.2179
     23 N          11.9698   37.8016   10.1306 N.ar    1  UNL1       -0.2179
@<TRIPOS>BOND
     1     7    13    1
     2     8    13    1
     3     8     9    1
     4     9    10    1
     5    10    11    1
     6    11    12    1
     7    11     1    1
     8    12    13    1
     9     1     6   ar
    10     2     3   ar
    11     4     5   ar
    12     5    14    1
    13    16    23   ar
    14    17    22   ar
    15    18    17    1
    16    19    20   ar
    17    21    20    1
    18    14    16    1
    19     1     2   ar
    20     3     4   ar
    21     5     6   ar
    22    16    22   ar
    23    17    19   ar
    24    20    23   ar
    25    14    15    1
@<TRIPOS>MOLECULE
Molport-020-292-983 CHEMBL3504835 CHEMBL3550852 MCULE-5536403963 MCULE-9979805251 PubChem-110265450 PubChem-118747446
 23 25 0 0 0
SMALL
GASTEIGER

@<TRIPOS>ATOM
      1 C          13.8480   42.0483    7.3148 C.ar    1  UNL1        0.0614
      2 C          12.9823   42.1529    6.2177 C.ar    1  UNL1        0.0149
      3 C          11.6416   41.8018    6.3704 C.ar    1  UNL1        0.0041
      4 C          11.1788   41.3523    7.6070 C.ar    1  UNL1        0.0345
      5 C          12.0670   41.2574    8.6870 C.ar    1  UNL1        0.1339
      6 N          13.3706   41.6069    8.5102 N.ar    1  UNL1       -0.2348
      7 C          17.4432   43.8573    5.6892 C.3     1  UNL1        0.0896
      8 C          17.6638   43.8155    8.0782 C.3     1  UNL1        0.0722
      9 C          17.5459   42.2962    8.2344 C.3     1  UNL1        0.0178
     10 C          16.0859   41.9073    8.3952 C.3     1  UNL1        0.0087
     11 C          15.2935   42.4133    7.1967 C.3     1  UNL1        0.0563
     12 C          15.4674   43.9308    7.0456 C.3     1  UNL1        0.0780
     13 N          16.8782   44.3305    6.9475 N.3     1  UNL1       -0.2712
     14 N          11.6427   40.8013    9.9795 N.pl3   1  UNL1       -0.2680
     15 H          12.2791   40.2334   10.4712 H       1  UNL1        0.1565
     16 C          10.3990   41.0770   10.6380 C.ar    1  UNL1        0.2211
     17 C           9.1871   41.2842   12.6604 C.ar    1  UNL1        0.0634
     18 C           9.1547   41.2261   14.1449 C.3     1  UNL1        0.0522
     19 C           8.0301   41.5992   11.9502 C.ar    1  UNL1        0.0296
     20 C           8.1009   41.6438   10.5593 C.ar    1  UNL1        0.0634
     21 C           6.8909   41.9757    9.7633 C.3     1  UNL1        0.0522
     22 N          10.3443   41.0300   11.9955 N.ar    1  UNL1       -0.2179
     23 N           9.2767   41.3834    9.9309 N.ar    1  UNL1       -0.2179
@<TRIPOS>BOND
     1     7    13    1
     2     8    13    1
     3     8     9    1
     4     9    10    1
     5    10    11    1
     6    11    12    1
     7    11     1    1
     8    12    13    1
     9     1     6   ar
    10     2     3   ar
    11     4     5   ar
    12     5    14    1
    13    16    23   ar
    14    17    22   ar
    15    18    17    1
    16    19    20   ar
    17    21    20    1
    18    14    16    1
    19     1     2   ar
    20     3     4   ar
    21     5     6   ar
    22    16    22   ar
    23    17    19   ar
    24    20    23   ar
    25    14    15    1
@<TRIPOS>MOLECULE
Molport-020-292-983 CHEMBL3504835 CHEMBL3550852 MCULE-5536403963 MCULE-9979805251 PubChem-110265450 PubChem-118747446
 23 25 0 0 0
SMALL
GASTEIGER

@<TRIPOS>ATOM
      1 C           9.8598   41.1509    9.1733 C.ar    1  UNL1        0.0614
      2 C           9.9985   40.9199   10.5486 C.ar    1  UNL1        0.0149
      3 C          11.2632   40.6533   11.0717 C.ar    1  UNL1        0.0041
      4 C          12.3709   40.6193   10.2249 C.ar    1  UNL1        0.0345
      5 C          12.2029   40.8540    8.8534 C.ar    1  UNL1        0.1339
      6 N          10.9571   41.1119    8.3694 N.ar    1  UNL1       -0.2348
      7 C           5.5385   41.2745    8.7831 C.3     1  UNL1        0.0896
      8 C           6.4222   43.2438    7.7350 C.3     1  UNL1        0.0722
      9 C           7.2875   42.5145    6.7025 C.3     1  UNL1        0.0178
     10 C           8.6653   42.2455    7.2838 C.3     1  UNL1        0.0087
     11 C           8.5228   41.4400    8.5687 C.3     1  UNL1        0.0563
     12 C           7.6173   42.1795    9.5633 C.3     1  UNL1        0.0780
     13 N           6.2997   42.4999    8.9969 N.3     1  UNL1       -0.2712
     14 N          13.3085   40.8307    7.9393 N.pl3   1  UNL1       -0.2680
     15 H          13.1140   40.5101    7.0290 H       1  UNL1        0.1565
     16 C          14.6641   41.2202    8.1982 C.ar    1  UNL1        0.2211
     17 C          16.7205   40.7775    9.2831 C.ar    1  UNL1        0.0634
     18 C          17.5373   39.9138   10.1747 C.3     1  UNL1        0.0522
     19 C          17.2769   41.9277    8.7266 C.ar    1  UNL1        0.0296
     20 C          16.4788   42.7115    7.8957 C.ar    1  UNL1        0.0634
     21 C          17.0324   43.9461    7.2814 C.3     1  UNL1        0.0522
     22 N          15.4314   40.4462    9.0107 N.ar    1  UNL1       -0.2179
     23 N          15.1941   42.3467    7.6474 N.ar    1  UNL1       -0.2179
@<TRIPOS>BOND
     1     7    13    1
     2     8    13    1
     3     8     9    1
     4     9    10    1
     5    10    11    1
     6    11    12    1
     7    11     1    1
     8    12    13    1
     9     1     6   ar
    10     2     3   ar
    11     4     5   ar
    12     5    14    1
    13    16    23   ar
    14    17    22   ar
    15    18    17    1
    16    19    20   ar
    17    21    20    1
    18    14    16    1
    19     1     2   ar
    20     3     4   ar
    21     5     6   ar
    22    16    22   ar
    23    17    19   ar
    24    20    23   ar
    25    14    15    1
@<TRIPOS>MOLECULE
Molport-020-292-983 CHEMBL3504835 CHEMBL3550852 MCULE-5536403963 MCULE-9979805251 PubChem-110265450 PubChem-118747446
 23 25 0 0 0
SMALL
GASTEIGER

@<TRIPOS>ATOM
      1 C          13.9581   41.9459    7.5495 C.ar    1  UNL1        0.0614
      2 C          14.0400   40.7193    8.2223 C.ar    1  UNL1        0.0149
      3 C          12.9290   39.8771    8.2437 C.ar    1  UNL1        0.0041
      4 C          11.7539   40.2626    7.5988 C.ar    1  UNL1        0.0345
      5 C          11.7002   41.4951    6.9337 C.ar    1  UNL1        0.1339
      6 N          12.7996   42.2978    6.9284 N.ar    1  UNL1       -0.2348
      7 C          17.5089   44.0555    8.8845 C.3     1  UNL1        0.0896
      8 C          17.7222   43.6905    6.5226 C.3     1  UNL1        0.0722
      9 C          16.4570   44.4527    6.1167 C.3     1  UNL1        0.0178
     10 C          15.2648   43.5106    6.1214 C.3     1  UNL1        0.0087
     11 C          15.1245   42.8808    7.5012 C.3     1  UNL1        0.0563
     12 C          16.4228   42.1618    7.8931 C.3     1  UNL1        0.0780
     13 N          17.5962   43.0447    7.8370 N.3     1  UNL1       -0.2712
     14 N          10.5168   41.9393    6.2549 N.pl3   1  UNL1       -0.2680
     15 H          10.6528   42.3740    5.3821 H       1  UNL1        0.1565
     16 C           9.1587   41.8232    6.7007 C.ar    1  UNL1        0.2211
     17 C           7.1043   40.6500    6.6333 C.ar    1  UNL1        0.0634
     18 C           6.2920   39.5205    6.1115 C.3     1  UNL1        0.0522
     19 C           6.5415   41.5577    7.5285 C.ar    1  UNL1        0.0296
     20 C           7.3355   42.6034    7.9951 C.ar    1  UNL1        0.0634
     21 C           6.7751   43.5935    8.9509 C.3     1  UNL1        0.0522
     22 N           8.3955   40.7981    6.2374 N.ar    1  UNL1       -0.2179
     23 N           8.6224   42.7176    7.5758 N.ar    1  UNL1       -0.2179
@<TRIPOS>BOND
     1     7    13    1
     2     8    13    1
     3     8     9    1
     4     9    10    1
     5    10    11    1
     6    11    12    1
     7    11     1    1
     8    12    13    1
     9     1     6   ar
    10     2     3   ar
    11     4     5   ar
    12     5    14    1
    13    16    23   ar
    14    17    22   ar
    15    18    17    1
    16    19    20   ar
    17    21    20    1
    18    14    16    1
    19     1     2   ar
    20     3     4   ar
    21     5     6   ar
    22    16    22   ar
    23    17    19   ar
    24    20    23   ar
    25    14    15    1
@<TRIPOS>MOLECULE
Molport-020-292-983 CHEMBL3504835 CHEMBL3550852 MCULE-5536403963 MCULE-9979805251 PubChem-110265450 PubChem-118747446
 23 25 0 0 0
SMALL
GASTEIGER

@<TRIPOS>ATOM
      1 C           9.5755   41.1357    9.3154 C.ar    1  UNL1        0.0614
      2 C           9.7754   40.9733   10.6930 C.ar    1  UNL1        0.0149
      3 C          11.0504   40.6650   11.1659 C.ar    1  UNL1        0.0041
      4 C          12.1075   40.5220   10.2675 C.ar    1  UNL1        0.0345
      5 C          11.8787   40.6899    8.8950 C.ar    1  UNL1        0.1339
      6 N          10.6243   40.9908    8.4606 N.ar    1  UNL1       -0.2348
      7 C           5.2466   41.2808    9.0322 C.3     1  UNL1        0.0896
      8 C           6.1067   43.3227    8.1110 C.3     1  UNL1        0.0722
      9 C           6.9485   42.6721    7.0089 C.3     1  UNL1        0.0178
     10 C           8.3390   42.3635    7.5381 C.3     1  UNL1        0.0087
     11 C           8.2253   41.4661    8.7637 C.3     1  UNL1        0.0563
     12 C           7.3424   42.1297    9.8296 C.3     1  UNL1        0.0780
     13 N           6.0124   42.4885    9.3177 N.3     1  UNL1       -0.2712
     14 N          12.9308   40.5540    7.9289 N.pl3   1  UNL1       -0.2680
     15 H          12.9272   39.7269    7.3949 H       1  UNL1        0.1565
     16 C          13.9869   41.4835    7.6511 C.ar    1  UNL1        0.2211
     17 C          14.7585   43.3570    6.4279 C.ar    1  UNL1        0.0634
     18 C          14.5124   44.4096    5.4082 C.3     1  UNL1        0.0522
     19 C          15.9875   43.2945    7.0820 C.ar    1  UNL1        0.0296
     20 C          16.1797   42.2930    8.0316 C.ar    1  UNL1        0.0634
     21 C          17.4749   42.1904    8.7525 C.3     1  UNL1        0.0522
     22 N          13.7856   42.4555    6.7223 N.ar    1  UNL1       -0.2179
     23 N          15.1824   41.4102    8.2982 N.ar    1  UNL1       -0.2179
@<TRIPOS>BOND
     1     7    13    1
     2     8    13    1
     3     8     9    1
     4     9    10    1
     5    10    11    1
     6    11    12    1
     7    11     1    1
     8    12    13    1
     9     1     6   ar
    10     2     3   ar
    11     4     5   ar
    12     5    14    1
    13    16    23   ar
    14    17    22   ar
    15    18    17    1
    16    19    20   ar
    17    21    20    1
    18    14    16    1
    19     1     2   ar
    20     3     4   ar
    21     5     6   ar
    22    16    22   ar
    23    17    19   ar
    24    20    23   ar
    25    14    15    1
