@<TRIPOS>MOLECULE
MolPort-002-865-768 5540787 CHEMBL1340266 CSSS00138423847 MCULE-5341935088 PubChem-3721638 ZINC000005540787 ZINC05540787
 26 28 0 0 0
SMALL
GASTEIGER

@<TRIPOS>ATOM
      1 C          11.4534   41.5014   10.7611 C.ar    1  UNL1        0.1866
      2 C          12.2247   41.8467    8.6827 C.ar    1  UNL1        0.3638
      3 C          13.5778   39.8618    7.9381 C.2     1  UNL1        0.2747
      4 O          12.3704   42.4904    7.6097 O.2     1  UNL1       -0.2434
      5 O          13.5679   40.1842    6.7191 O.2     1  UNL1       -0.2659
      6 N          11.4798   42.3539    9.7118 N.ar    1  UNL1       -0.1687
      7 N          12.7991   40.6235    8.8797 N.ar    1  UNL1       -0.1919
      8 S          12.3412   40.1408   10.4057 S.2     1  UNL1        0.0367
      9 C          14.4095   38.7177    8.3751 C.ar    1  UNL1        0.0677
     10 C          15.5595   38.8873    9.1803 C.ar    1  UNL1        0.0623
     11 C          16.2921   37.7691    9.5922 C.ar    1  UNL1        0.0115
     12 C          15.8923   36.4842    9.2211 C.ar    1  UNL1        0.0009
     13 C          14.7563   36.3093    8.4305 C.ar    1  UNL1        0.0002
     14 C          14.0199   37.4196    8.0128 C.ar    1  UNL1        0.0056
     15 CL         16.1564   40.4729    9.6512 Cl      1  UNL1       -0.0821
     16 C           9.5889   41.0202   12.4157 C.2     1  UNL1        0.2509
     17 O           9.0935   40.1154   11.6896 O.2     1  UNL1       -0.2698
     18 N          10.7587   41.7310   11.9902 N.am    1  UNL1       -0.2594
     19 H          11.1102   42.4293   12.5885 H       1  UNL1        0.1571
     20 C           7.1341   42.3076   17.4716 C.3     1  UNL1        0.0310
     21 C           7.7668   41.9754   16.1687 C.ar    1  UNL1       -0.0218
     22 C           7.8992   42.9593   15.1852 C.ar    1  UNL1       -0.0041
     23 C           8.4944   42.6468   13.9594 C.ar    1  UNL1        0.0042
     24 C           8.9616   41.3485   13.7081 C.ar    1  UNL1        0.0537
     25 C           8.8248   40.3667   14.7011 C.ar    1  UNL1        0.0042
     26 C           8.2296   40.6791   15.9269 C.ar    1  UNL1       -0.0041
@<TRIPOS>BOND
     1    20    21    1
     2    22    23   ar
     3    24    25   ar
     4    24    16    1
     5    26    21   ar
     6    16    18   am
     7     1     8   ar
     8     2     6   ar
     9     2     7   ar
    10     3     9    1
    11    10    15    1
    12    10    11   ar
    13    12    13   ar
    14    14     9   ar
    15    18     1    1
    16     7     8   ar
    17     7     3   am
    18    21    22   ar
    19    23    24   ar
    20    25    26   ar
    21    16    17    2
    22     1     6   ar
    23     2     4    2
    24     3     5    2
    25     9    10   ar
    26    11    12   ar
    27    13    14   ar
    28    18    19    1
@<TRIPOS>MOLECULE
MolPort-002-865-768 5540787 CHEMBL1340266 CSSS00138423847 MCULE-5341935088 PubChem-3721638 ZINC000005540787 ZINC05540787
 26 28 0 0 0
SMALL
GASTEIGER

@<TRIPOS>ATOM
      1 C           3.8975   41.8551   11.4780 C.ar    1  UNL1        0.1866
      2 C           2.2960   40.8752   12.7065 C.ar    1  UNL1        0.3638
      3 C           0.7185   42.6213   13.5940 C.2     1  UNL1        0.2747
      4 O           1.6902   39.9015   13.2279 O.2     1  UNL1       -0.2434
      5 O          -0.1794   41.7946   13.9109 O.2     1  UNL1       -0.2659
      6 N           3.4112   40.6804   11.9385 N.ar    1  UNL1       -0.1687
      7 N           1.8827   42.1651   12.8800 N.ar    1  UNL1       -0.1919
      8 S           2.9491   43.1097   12.0185 S.2     1  UNL1        0.0367
      9 C           0.5626   44.0408   13.9843 C.ar    1  UNL1        0.0677
     10 C          -0.6674   44.7264   13.8546 C.ar    1  UNL1        0.0623
     11 C          -0.7688   46.0587   14.2685 C.ar    1  UNL1        0.0115
     12 C           0.3338   46.7162   14.8169 C.ar    1  UNL1        0.0009
     13 C           1.5490   46.0444   14.9517 C.ar    1  UNL1        0.0002
     14 C           1.6603   44.7151   14.5396 C.ar    1  UNL1        0.0056
     15 CL         -2.0889   43.9859   13.1314 Cl      1  UNL1       -0.0821
     16 C           6.3664   41.5384   10.9780 C.2     1  UNL1        0.2509
     17 O           6.5789   40.9598   12.0787 O.2     1  UNL1       -0.2698
     18 N           5.0504   41.9975   10.6434 N.am    1  UNL1       -0.2594
     19 H           4.9311   42.4441    9.7742 H       1  UNL1        0.1571
     20 C          10.7099   42.3433    7.2724 C.3     1  UNL1        0.0310
     21 C           9.5907   42.1356    8.2277 C.ar    1  UNL1       -0.0218
     22 C           8.3323   42.6807    7.9588 C.ar    1  UNL1       -0.0041
     23 C           7.2793   42.4853    8.8575 C.ar    1  UNL1        0.0042
     24 C           7.4769   41.7437   10.0314 C.ar    1  UNL1        0.0537
     25 C           8.7435   41.1999   10.2936 C.ar    1  UNL1        0.0042
     26 C           9.7965   41.3952    9.3949 C.ar    1  UNL1       -0.0041
@<TRIPOS>BOND
     1    20    21    1
     2    22    23   ar
     3    24    25   ar
     4    24    16    1
     5    26    21   ar
     6    16    18   am
     7     1     8   ar
     8     2     6   ar
     9     2     7   ar
    10     3     9    1
    11    10    15    1
    12    10    11   ar
    13    12    13   ar
    14    14     9   ar
    15    18     1    1
    16     7     8   ar
    17     7     3   am
    18    21    22   ar
    19    23    24   ar
    20    25    26   ar
    21    16    17    2
    22     1     6   ar
    23     2     4    2
    24     3     5    2
    25     9    10   ar
    26    11    12   ar
    27    13    14   ar
    28    18    19    1
@<TRIPOS>MOLECULE
MolPort-002-865-768 5540787 CHEMBL1340266 CSSS00138423847 MCULE-5341935088 PubChem-3721638 ZINC000005540787 ZINC05540787
 26 28 0 0 0
SMALL
GASTEIGER

@<TRIPOS>ATOM
      1 C           1.2288   42.8920   13.0298 C.ar    1  UNL1        0.1866
      2 C          -0.7698   42.3341   13.8833 C.ar    1  UNL1        0.3638
      3 C          -1.2293   43.7085   15.9388 C.2     1  UNL1        0.2747
      4 O          -1.8599   41.7040   13.9239 O.2     1  UNL1       -0.2434
      5 O          -2.4604   43.4372   15.9687 O.2     1  UNL1       -0.2659
      6 N           0.1355   42.1101   12.8825 N.ar    1  UNL1       -0.1687
      7 N          -0.4312   43.2614   14.8269 N.ar    1  UNL1       -0.1919
      8 S           1.0632   43.8452   14.3824 S.2     1  UNL1        0.0367
      9 C          -0.6294   44.4637   17.0618 C.ar    1  UNL1        0.0677
     10 C          -0.5221   45.8737   17.0485 C.ar    1  UNL1        0.0623
     11 C           0.0241   46.5408   18.1501 C.ar    1  UNL1        0.0115
     12 C           0.4578   45.8257   19.2678 C.ar    1  UNL1        0.0009
     13 C           0.3509   44.4350   19.2893 C.ar    1  UNL1        0.0002
     14 C          -0.1911   43.7603   18.1937 C.ar    1  UNL1        0.0056
     15 CL         -1.0008   46.8435   15.6620 Cl      1  UNL1       -0.0821
     16 C           3.1668   41.7634   11.8397 C.2     1  UNL1        0.2509
     17 O           2.9112   40.6410   12.3556 O.2     1  UNL1       -0.2698
     18 N           2.3560   42.9043   12.1493 N.am    1  UNL1       -0.2594
     19 H           2.5927   43.7602   11.7243 H       1  UNL1        0.1571
     20 C           7.6183   42.3094    8.2160 C.3     1  UNL1        0.0310
     21 C           6.4713   42.1686    9.1502 C.ar    1  UNL1       -0.0218
     22 C           5.1722   42.4289    8.7058 C.ar    1  UNL1       -0.0041
     23 C           4.0930   42.2964    9.5848 C.ar    1  UNL1        0.0042
     24 C           4.3049   41.9028   10.9141 C.ar    1  UNL1        0.0537
     25 C           5.6125   41.6434   11.3520 C.ar    1  UNL1        0.0042
     26 C           6.6916   41.7758   10.4732 C.ar    1  UNL1       -0.0041
@<TRIPOS>BOND
     1    20    21    1
     2    22    23   ar
     3    24    25   ar
     4    24    16    1
     5    26    21   ar
     6    16    18   am
     7     1     8   ar
     8     2     6   ar
     9     2     7   ar
    10     3     9    1
    11    10    15    1
    12    10    11   ar
    13    12    13   ar
    14    14     9   ar
    15    18     1    1
    16     7     8   ar
    17     7     3   am
    18    21    22   ar
    19    23    24   ar
    20    25    26   ar
    21    16    17    2
    22     1     6   ar
    23     2     4    2
    24     3     5    2
    25     9    10   ar
    26    11    12   ar
    27    13    14   ar
    28    18    19    1
@<TRIPOS>MOLECULE
MolPort-002-865-768 5540787 CHEMBL1340266 CSSS00138423847 MCULE-5341935088 PubChem-3721638 ZINC000005540787 ZINC05540787
 26 28 0 0 0
SMALL
GASTEIGER

@<TRIPOS>ATOM
      1 C           2.9986   42.0440   11.5704 C.ar    1  UNL1        0.1866
      2 C           1.4954   41.3275   13.0742 C.ar    1  UNL1        0.3638
      3 C           0.3736   43.2994   14.1597 C.2     1  UNL1        0.2747
      4 O           0.8445   40.4609   13.7162 O.2     1  UNL1       -0.2434
      5 O          -0.5737   42.6227   14.6442 O.2     1  UNL1       -0.2659
      6 N           2.4232   40.9601   12.1384 N.ar    1  UNL1       -0.1687
      7 N           1.3184   42.6664   13.2766 N.ar    1  UNL1       -0.1919
      8 S           2.3565   43.4319   12.2240 S.2     1  UNL1        0.0367
      9 C           0.5035   44.7269   14.5295 C.ar    1  UNL1        0.0677
     10 C          -0.5353   45.6600   14.3057 C.ar    1  UNL1        0.0623
     11 C          -0.3732   46.9912   14.7035 C.ar    1  UNL1        0.0115
     12 C           0.8045   47.4056   15.3281 C.ar    1  UNL1        0.0009
     13 C           1.8316   46.4894   15.5559 C.ar    1  UNL1        0.0002
     14 C           1.6796   45.1590   15.1605 C.ar    1  UNL1        0.0056
     15 CL         -2.0292   45.2299   13.4837 Cl      1  UNL1       -0.0821
     16 C           5.3995   41.7800   10.7882 C.2     1  UNL1        0.2509
     17 O           5.8275   41.6003   11.9612 O.2     1  UNL1       -0.2698
     18 N           4.0032   42.0036   10.5531 N.am    1  UNL1       -0.2594
     19 H           3.7142   42.1397    9.6218 H       1  UNL1        0.1571
     20 C           9.0805   41.7017    6.3509 C.3     1  UNL1        0.0310
     21 C           8.1315   41.7220    7.4943 C.ar    1  UNL1       -0.0218
     22 C           8.5732   41.3796    8.7751 C.ar    1  UNL1       -0.0041
     23 C           7.6804   41.3987    9.8508 C.ar    1  UNL1        0.0042
     24 C           6.3396   41.7602    9.6537 C.ar    1  UNL1        0.0537
     25 C           5.9046   42.1026    8.3645 C.ar    1  UNL1        0.0042
     26 C           6.7973   42.0835    7.2888 C.ar    1  UNL1       -0.0041
@<TRIPOS>BOND
     1    20    21    1
     2    22    23   ar
     3    24    25   ar
     4    24    16    1
     5    26    21   ar
     6    16    18   am
     7     1     8   ar
     8     2     6   ar
     9     2     7   ar
    10     3     9    1
    11    10    15    1
    12    10    11   ar
    13    12    13   ar
    14    14     9   ar
    15    18     1    1
    16     7     8   ar
    17     7     3   am
    18    21    22   ar
    19    23    24   ar
    20    25    26   ar
    21    16    17    2
    22     1     6   ar
    23     2     4    2
    24     3     5    2
    25     9    10   ar
    26    11    12   ar
    27    13    14   ar
    28    18    19    1
@<TRIPOS>MOLECULE
MolPort-002-865-768 5540787 CHEMBL1340266 CSSS00138423847 MCULE-5341935088 PubChem-3721638 ZINC000005540787 ZINC05540787
 26 28 0 0 0
SMALL
GASTEIGER

@<TRIPOS>ATOM
      1 C           8.8832   42.0775   10.9871 C.ar    1  UNL1        0.1866
      2 C          10.2390   41.2432   12.5683 C.ar    1  UNL1        0.3638
      3 C          12.0939   39.9306   11.4905 C.2     1  UNL1        0.2747
      4 O          10.6367   41.0511   13.7481 O.2     1  UNL1       -0.2434
      5 O          12.8113   39.8997   12.5271 O.2     1  UNL1       -0.2659
      6 N           9.1273   41.9990   12.3148 N.ar    1  UNL1       -0.1687
      7 N          10.8835   40.7104   11.4886 N.ar    1  UNL1       -0.1919
      8 S          10.0369   41.2214   10.1494 S.2     1  UNL1        0.0367
      9 C          12.5044   39.1445   10.3052 C.ar    1  UNL1        0.0677
     10 C          13.0891   39.7477    9.1676 C.ar    1  UNL1        0.0623
     11 C          13.4886   38.9546    8.0868 C.ar    1  UNL1        0.0115
     12 C          13.3218   37.5691    8.1250 C.ar    1  UNL1        0.0009
     13 C          12.7497   36.9671    9.2459 C.ar    1  UNL1        0.0002
     14 C          12.3461   37.7508   10.3286 C.ar    1  UNL1        0.0056
     15 CL         13.2906   41.4884    9.0210 Cl      1  UNL1       -0.0821
     16 C           6.8497   42.2365    9.4754 C.2     1  UNL1        0.2509
     17 O           6.9299   41.0242    9.1359 O.2     1  UNL1       -0.2698
     18 N           7.7999   42.7965   10.3911 N.am    1  UNL1       -0.2594
     19 H           7.6992   43.7469   10.6273 H       1  UNL1        0.1571
     20 C           2.6426   45.5446    7.3303 C.3     1  UNL1        0.0310
     21 C           3.7266   44.6918    7.8834 C.ar    1  UNL1       -0.0218
     22 C           5.0383   44.8455    7.4266 C.ar    1  UNL1       -0.0041
     23 C           6.0582   44.0432    7.9470 C.ar    1  UNL1        0.0042
     24 C           5.7740   43.0816    8.9276 C.ar    1  UNL1        0.0537
     25 C           4.4543   42.9340    9.3806 C.ar    1  UNL1        0.0042
     26 C           3.4344   43.7363    8.8604 C.ar    1  UNL1       -0.0041
@<TRIPOS>BOND
     1    20    21    1
     2    22    23   ar
     3    24    25   ar
     4    24    16    1
     5    26    21   ar
     6    16    18   am
     7     1     8   ar
     8     2     6   ar
     9     2     7   ar
    10     3     9    1
    11    10    15    1
    12    10    11   ar
    13    12    13   ar
    14    14     9   ar
    15    18     1    1
    16     7     8   ar
    17     7     3   am
    18    21    22   ar
    19    23    24   ar
    20    25    26   ar
    21    16    17    2
    22     1     6   ar
    23     2     4    2
    24     3     5    2
    25     9    10   ar
    26    11    12   ar
    27    13    14   ar
    28    18    19    1
@<TRIPOS>MOLECULE
MolPort-002-865-768 5540787 CHEMBL1340266 CSSS00138423847 MCULE-5341935088 PubChem-3721638 ZINC000005540787 ZINC05540787
 26 28 0 0 0
SMALL
GASTEIGER

@<TRIPOS>ATOM
      1 C           4.1990   42.4067   11.1156 C.ar    1  UNL1        0.1866
      2 C           5.1053   42.8288    9.1069 C.ar    1  UNL1        0.3638
      3 C           7.4093   41.8277    8.9872 C.2     1  UNL1        0.2747
      4 O           5.1239   43.2930    7.9360 O.2     1  UNL1       -0.2434
      5 O           7.4952   41.9214    7.7327 O.2     1  UNL1       -0.2659
      6 N           4.0061   42.9813    9.9068 N.ar    1  UNL1       -0.1687
      7 N           6.1697   42.1599    9.6402 N.ar    1  UNL1       -0.1919
      8 S           5.7123   41.7200   11.1793 S.2     1  UNL1        0.0367
      9 C           8.5955   41.3977    9.7616 C.ar    1  UNL1        0.0677
     10 C           9.5077   40.4358    9.2692 C.ar    1  UNL1        0.0623
     11 C          10.6304   40.0885   10.0279 C.ar    1  UNL1        0.0115
     12 C          10.8627   40.6904   11.2658 C.ar    1  UNL1        0.0009
     13 C           9.9692   41.6432   11.7556 C.ar    1  UNL1        0.0002
     14 C           8.8448   41.9948   11.0064 C.ar    1  UNL1        0.0056
     15 CL          9.2629   39.5976    7.7429 Cl      1  UNL1       -0.0821
     16 C           1.8265   42.2385   12.0036 C.2     1  UNL1        0.2509
     17 O           1.3360   42.1170   10.8477 O.2     1  UNL1       -0.2698
     18 N           3.2417   42.3848   12.1781 N.am    1  UNL1       -0.2594
     19 H           3.5801   42.4772   13.0980 H       1  UNL1        0.1571
     20 C          -1.6445   42.2050   16.6076 C.3     1  UNL1        0.0310
     21 C          -0.7497   42.2138   15.4212 C.ar    1  UNL1       -0.0218
     22 C          -1.2135   41.7360   14.1926 C.ar    1  UNL1       -0.0041
     23 C          -0.3716   41.7443   13.0764 C.ar    1  UNL1        0.0042
     24 C           0.9400   42.2302   13.1806 C.ar    1  UNL1        0.0537
     25 C           1.3975   42.7080   14.4180 C.ar    1  UNL1        0.0042
     26 C           0.5557   42.6998   15.5341 C.ar    1  UNL1       -0.0041
@<TRIPOS>BOND
     1    20    21    1
     2    22    23   ar
     3    24    25   ar
     4    24    16    1
     5    26    21   ar
     6    16    18   am
     7     1     8   ar
     8     2     6   ar
     9     2     7   ar
    10     3     9    1
    11    10    15    1
    12    10    11   ar
    13    12    13   ar
    14    14     9   ar
    15    18     1    1
    16     7     8   ar
    17     7     3   am
    18    21    22   ar
    19    23    24   ar
    20    25    26   ar
    21    16    17    2
    22     1     6   ar
    23     2     4    2
    24     3     5    2
    25     9    10   ar
    26    11    12   ar
    27    13    14   ar
    28    18    19    1
@<TRIPOS>MOLECULE
MolPort-002-865-768 5540787 CHEMBL1340266 CSSS00138423847 MCULE-5341935088 PubChem-3721638 ZINC000005540787 ZINC05540787
 26 28 0 0 0
SMALL
GASTEIGER

@<TRIPOS>ATOM
      1 C          12.5823   39.3574    9.0165 C.ar    1  UNL1        0.1866
      2 C          11.5763   41.2346    9.7226 C.ar    1  UNL1        0.3638
      3 C           9.1653   41.2271    9.0069 C.2     1  UNL1        0.2747
      4 O          11.5146   42.3460   10.3125 O.2     1  UNL1       -0.2434
      5 O           8.8246   42.1549    9.7898 O.2     1  UNL1       -0.2659
      6 N          12.7394   40.5150    9.6976 N.ar    1  UNL1       -0.1687
      7 N          10.5009   40.6937    9.0778 N.ar    1  UNL1       -0.1919
      8 S          11.0194   39.2370    8.4609 S.2     1  UNL1        0.0367
      9 C           8.1871   40.7227    8.0168 C.ar    1  UNL1        0.0677
     10 C           6.7914   40.8453    8.2078 C.ar    1  UNL1        0.0623
     11 C           5.9107   40.3802    7.2255 C.ar    1  UNL1        0.0115
     12 C           6.3990   39.8022    6.0524 C.ar    1  UNL1        0.0009
     13 C           7.7748   39.6821    5.8556 C.ar    1  UNL1        0.0002
     14 C           8.6615   40.1415    6.8313 C.ar    1  UNL1        0.0056
     15 CL          6.0953   41.5173    9.6761 Cl      1  UNL1       -0.0821
     16 C          13.6102   37.0659    9.3883 C.2     1  UNL1        0.2509
     17 O          12.6674   36.6964   10.1407 O.2     1  UNL1       -0.2698
     18 N          13.6046   38.3783    8.8117 N.am    1  UNL1       -0.2594
     19 H          14.3609   38.6240    8.2313 H       1  UNL1        0.1571
     20 C          17.9632   33.4560    8.2635 C.3     1  UNL1        0.0310
     21 C          16.8416   34.3867    8.5534 C.ar    1  UNL1       -0.0218
     22 C          15.5291   33.9084    8.5925 C.ar    1  UNL1       -0.0041
     23 C          14.4738   34.7840    8.8652 C.ar    1  UNL1        0.0042
     24 C          14.7231   36.1439    9.1009 C.ar    1  UNL1        0.0537
     25 C          16.0439   36.6157    9.0599 C.ar    1  UNL1        0.0042
     26 C          17.0992   35.7402    8.7871 C.ar    1  UNL1       -0.0041
@<TRIPOS>BOND
     1    20    21    1
     2    22    23   ar
     3    24    25   ar
     4    24    16    1
     5    26    21   ar
     6    16    18   am
     7     1     8   ar
     8     2     6   ar
     9     2     7   ar
    10     3     9    1
    11    10    15    1
    12    10    11   ar
    13    12    13   ar
    14    14     9   ar
    15    18     1    1
    16     7     8   ar
    17     7     3   am
    18    21    22   ar
    19    23    24   ar
    20    25    26   ar
    21    16    17    2
    22     1     6   ar
    23     2     4    2
    24     3     5    2
    25     9    10   ar
    26    11    12   ar
    27    13    14   ar
    28    18    19    1
@<TRIPOS>MOLECULE
MolPort-002-865-768 5540787 CHEMBL1340266 CSSS00138423847 MCULE-5341935088 PubChem-3721638 ZINC000005540787 ZINC05540787
 26 28 0 0 0
SMALL
GASTEIGER

@<TRIPOS>ATOM
      1 C          10.9204   41.4762    8.3679 C.ar    1  UNL1        0.1866
      2 C          13.1440   41.2752    8.5908 C.ar    1  UNL1        0.3638
      3 C          13.7493   38.8570    8.9234 C.2     1  UNL1        0.2747
      4 O          14.3308   41.6951    8.6367 O.2     1  UNL1       -0.2434
      5 O          14.9750   39.0251    8.6797 O.2     1  UNL1       -0.2659
      6 N          12.1008   42.1357    8.3842 N.ar    1  UNL1       -0.1687
      7 N          12.8341   39.9546    8.7479 N.ar    1  UNL1       -0.1919
      8 S          11.1788   39.8503    8.6040 S.2     1  UNL1        0.0367
      9 C          13.2840   37.5371    9.4060 C.ar    1  UNL1        0.0677
     10 C          13.9621   36.3375    9.0880 C.ar    1  UNL1        0.0623
     11 C          13.4984   35.1198    9.5967 C.ar    1  UNL1        0.0115
     12 C          12.3744   35.0793   10.4235 C.ar    1  UNL1        0.0009
     13 C          11.7033   36.2594   10.7447 C.ar    1  UNL1        0.0002
     14 C          12.1575   37.4793   10.2401 C.ar    1  UNL1        0.0056
     15 CL         15.3558   36.2969    8.0164 Cl      1  UNL1       -0.0821
     16 C           8.6318   42.2192    9.1775 C.2     1  UNL1        0.2509
     17 O           8.8352   41.7859   10.3447 O.2     1  UNL1       -0.2698
     18 N           9.6412   42.0841    8.1688 N.am    1  UNL1       -0.2594
     19 H           9.4388   42.4361    7.2719 H       1  UNL1        0.1571
     20 C           3.6166   44.7566    7.8910 C.3     1  UNL1        0.0310
     21 C           4.9090   44.1024    8.2228 C.ar    1  UNL1       -0.0218
     22 C           6.0861   44.5239    7.5987 C.ar    1  UNL1       -0.0041
     23 C           7.3019   43.9085    7.9109 C.ar    1  UNL1        0.0042
     24 C           7.3497   42.8672    8.8492 C.ar    1  UNL1        0.0537
     25 C           6.1631   42.4502    9.4712 C.ar    1  UNL1        0.0042
     26 C           4.9473   43.0656    9.1591 C.ar    1  UNL1       -0.0041
@<TRIPOS>BOND
     1    20    21    1
     2    22    23   ar
     3    24    25   ar
     4    24    16    1
     5    26    21   ar
     6    16    18   am
     7     1     8   ar
     8     2     6   ar
     9     2     7   ar
    10     3     9    1
    11    10    15    1
    12    10    11   ar
    13    12    13   ar
    14    14     9   ar
    15    18     1    1
    16     7     8   ar
    17     7     3   am
    18    21    22   ar
    19    23    24   ar
    20    25    26   ar
    21    16    17    2
    22     1     6   ar
    23     2     4    2
    24     3     5    2
    25     9    10   ar
    26    11    12   ar
    27    13    14   ar
    28    18    19    1
@<TRIPOS>MOLECULE
MolPort-002-865-768 5540787 CHEMBL1340266 CSSS00138423847 MCULE-5341935088 PubChem-3721638 ZINC000005540787 ZINC05540787
 26 28 0 0 0
SMALL
GASTEIGER

@<TRIPOS>ATOM
      1 C          15.5504   35.2136    8.2061 C.ar    1  UNL1        0.1866
      2 C          16.9541   33.4632    8.1976 C.ar    1  UNL1        0.3638
      3 C          18.0545   33.2677    5.9446 C.2     1  UNL1        0.2747
      4 O          17.5511   32.4743    8.7001 O.2     1  UNL1       -0.2434
      5 O          18.9599   32.4851    6.3419 O.2     1  UNL1       -0.2659
      6 N          16.0717   34.2023    8.9368 N.ar    1  UNL1       -0.1687
      7 N          17.1469   33.8462    6.9011 N.ar    1  UNL1       -0.1919
      8 S          16.1838   35.1841    6.6686 S.2     1  UNL1        0.0367
      9 C          17.9336   33.5559    4.4976 C.ar    1  UNL1        0.0677
     10 C          16.9552   32.9364    3.6858 C.ar    1  UNL1        0.0623
     11 C          16.8634   33.2686    2.3301 C.ar    1  UNL1        0.0115
     12 C          17.7257   34.2141    1.7723 C.ar    1  UNL1        0.0009
     13 C          18.6902   34.8322    2.5683 C.ar    1  UNL1        0.0002
     14 C          18.7908   34.5057    3.9220 C.ar    1  UNL1        0.0056
     15 CL         15.8634   31.7021    4.2996 Cl      1  UNL1       -0.0821
     16 C          14.9296   37.4887    9.1464 C.2     1  UNL1        0.2509
     17 O          16.1279   37.8831    9.1510 O.2     1  UNL1       -0.2698
     18 N          14.6025   36.1714    8.6857 N.am    1  UNL1       -0.2594
     19 H          13.6545   35.9059    8.7004 H       1  UNL1        0.1571
     20 C          10.7478   41.0033   10.9919 C.3     1  UNL1        0.0310
     21 C          11.8253   40.0974   10.5159 C.ar    1  UNL1       -0.0218
     22 C          12.9500   39.8698   11.3136 C.ar    1  UNL1       -0.0041
     23 C          13.9638   39.0176   10.8658 C.ar    1  UNL1        0.0042
     24 C          13.8605   38.3868    9.6174 C.ar    1  UNL1        0.0537
     25 C          12.7279   38.6208    8.8229 C.ar    1  UNL1        0.0042
     26 C          11.7141   39.4730    9.2707 C.ar    1  UNL1       -0.0041
@<TRIPOS>BOND
     1    20    21    1
     2    22    23   ar
     3    24    25   ar
     4    24    16    1
     5    26    21   ar
     6    16    18   am
     7     1     8   ar
     8     2     6   ar
     9     2     7   ar
    10     3     9    1
    11    10    15    1
    12    10    11   ar
    13    12    13   ar
    14    14     9   ar
    15    18     1    1
    16     7     8   ar
    17     7     3   am
    18    21    22   ar
    19    23    24   ar
    20    25    26   ar
    21    16    17    2
    22     1     6   ar
    23     2     4    2
    24     3     5    2
    25     9    10   ar
    26    11    12   ar
    27    13    14   ar
    28    18    19    1
@<TRIPOS>MOLECULE
MolPort-002-865-768 5540787 CHEMBL1340266 CSSS00138423847 MCULE-5341935088 PubChem-3721638 ZINC000005540787 ZINC05540787
 26 28 0 0 0
SMALL
GASTEIGER

@<TRIPOS>ATOM
      1 C           7.6289   41.2852    7.7238 C.ar    1  UNL1        0.1866
      2 C           9.4857   40.2318    8.4145 C.ar    1  UNL1        0.3638
      3 C          10.6733   39.2219    6.4409 C.2     1  UNL1        0.2747
      4 O          10.3297   39.8420    9.2645 O.2     1  UNL1       -0.2434
      5 O          11.7546   39.0307    7.0607 O.2     1  UNL1       -0.2659
      6 N           8.3992   40.9730    8.7905 N.ar    1  UNL1       -0.1687
      7 N           9.6024   39.9359    7.0864 N.ar    1  UNL1       -0.1919
      8 S           8.2964   40.6490    6.3398 S.2     1  UNL1        0.0367
      9 C          10.5237   38.6870    5.0687 C.ar    1  UNL1        0.0677
     10 C          10.8645   39.4445    3.9242 C.ar    1  UNL1        0.0623
     11 C          10.7341   38.8795    2.6512 C.ar    1  UNL1        0.0115
     12 C          10.2772   37.5691    2.5010 C.ar    1  UNL1        0.0009
     13 C           9.9435   36.8147    3.6260 C.ar    1  UNL1        0.0002
     14 C          10.0684   37.3707    4.9006 C.ar    1  UNL1        0.0056
     15 CL         11.4018   41.1158    4.0244 Cl      1  UNL1       -0.0821
     16 C           6.3678   43.4862    7.8291 C.2     1  UNL1        0.2509
     17 O           7.4303   44.1663    7.8331 O.2     1  UNL1       -0.2698
     18 N           6.4244   42.0548    7.7761 N.am    1  UNL1       -0.2594
     19 H           5.5705   41.5649    7.7757 H       1  UNL1        0.1571
     20 C           1.2580   46.1502    8.0245 C.3     1  UNL1        0.0310
     21 C           2.5749   45.4633    7.9745 C.ar    1  UNL1       -0.0218
     22 C           3.5332   45.8572    7.0367 C.ar    1  UNL1       -0.0041
     23 C           4.7721   45.2111    6.9896 C.ar    1  UNL1        0.0042
     24 C           5.0617   44.1665    7.8796 C.ar    1  UNL1        0.0537
     25 C           4.0939   43.7774    8.8180 C.ar    1  UNL1        0.0042
     26 C           2.8550   44.4236    8.8651 C.ar    1  UNL1       -0.0041
@<TRIPOS>BOND
     1    20    21    1
     2    22    23   ar
     3    24    25   ar
     4    24    16    1
     5    26    21   ar
     6    16    18   am
     7     1     8   ar
     8     2     6   ar
     9     2     7   ar
    10     3     9    1
    11    10    15    1
    12    10    11   ar
    13    12    13   ar
    14    14     9   ar
    15    18     1    1
    16     7     8   ar
    17     7     3   am
    18    21    22   ar
    19    23    24   ar
    20    25    26   ar
    21    16    17    2
    22     1     6   ar
    23     2     4    2
    24     3     5    2
    25     9    10   ar
    26    11    12   ar
    27    13    14   ar
    28    18    19    1
