@<TRIPOS>MOLECULE
MolPort-002-305-695 5557033 PubChem-1628717 ZINC000005557033 ZINC05557033
 26 28 0 0 0
SMALL
GASTEIGER

@<TRIPOS>ATOM
      1 C          12.3015   42.2091    6.5040 C.ar    1  UNL1        0.1568
      2 C          13.1754   41.6044    7.3942 C.ar    1  UNL1        0.0689
      3 C          13.0246   40.6937    8.4350 C.ar    1  UNL1        0.0075
      4 C          14.1825   40.3512    9.1544 C.ar    1  UNL1        0.0209
      5 C          14.1138   39.4336   10.2042 C.ar    1  UNL1        0.0384
      6 C          15.2715   39.0928   10.9237 C.ar    1  UNL1        0.1388
      7 C          16.4961   39.6797   10.5834 C.ar    1  UNL1        0.0384
      8 C          16.5800   40.6016    9.5356 C.ar    1  UNL1        0.0223
      9 C          15.4357   40.9458    8.8137 C.ar    1  UNL1        0.0831
     10 C          14.3872   42.1626    7.1096 C.ar    1  UNL1        0.1621
     11 N          14.2578   43.0629    6.1209 N.ar    1  UNL1       -0.2329
     12 N          12.9838   43.1035    5.7468 N.ar    1  UNL1       -0.1527
     13 N          15.5166   41.8536    7.7951 N.ar    1  UNL1       -0.2268
     14 C          10.2050   40.9134    5.8485 C.2     1  UNL1        0.2267
     15 N          10.8816   42.0387    6.4162 N.am    1  UNL1       -0.2679
     16 O          10.8141   40.1065    5.0946 O.2     1  UNL1       -0.2747
     17 H          10.3207   42.7617    6.7795 H       1  UNL1        0.1563
     18 C           8.7434   40.7447    6.1021 C.3     1  UNL1        0.0769
     19 C           8.5060   39.6910    7.1667 C.3     1  UNL1        0.0096
     20 C           8.1195   42.0599    6.5281 C.3     1  UNL1        0.0096
     21 C          14.4050   37.0220   11.9629 C.3     1  UNL1        0.2525
     22 O          15.2331   38.1768   11.9784 O.3     1  UNL1       -0.4714
     23 C          15.3075   43.8751    5.5241 C.3     1  UNL1        0.1292
     24 C          16.0955   44.5960    6.6065 C.3     1  UNL1        0.0264
     25 C          18.0995   44.0100    7.9682 C.3     1  UNL1        0.0001
     26 C          17.5557   44.1838    6.5625 C.3     1  UNL1        0.0021
@<TRIPOS>BOND
     1    25    26    1
     2    26    24    1
     3    24    23    1
     4    23    11    1
     5     1    15    1
     6     1     2   ar
     7    18    14    1
     8    18    19    1
     9    18    20    1
    10     3     4   ar
    11     5     6   ar
    12     6    22    1
    13    21    22    1
    14     7     8   ar
    15     9    13   ar
    16     9     4   ar
    17    10    11   ar
    18    10     2   ar
    19    11    12   ar
    20    15    14   am
    21     1    12   ar
    22    14    16    2
    23     2     3   ar
    24     4     5   ar
    25     6     7   ar
    26     8     9   ar
    27    10    13   ar
    28    15    17    1
@<TRIPOS>MOLECULE
MolPort-002-305-695 5557033 PubChem-1628717 ZINC000005557033 ZINC05557033
 26 28 0 0 0
SMALL
GASTEIGER

@<TRIPOS>ATOM
      1 C          12.1146   39.4576    8.3670 C.ar    1  UNL1        0.1568
      2 C          12.8287   40.5044    7.8049 C.ar    1  UNL1        0.0689
      3 C          14.0954   41.0394    8.0167 C.ar    1  UNL1        0.0075
      4 C          14.4462   42.1670    7.2545 C.ar    1  UNL1        0.0209
      5 C          15.7051   42.7523    7.4010 C.ar    1  UNL1        0.0384
      6 C          16.0544   43.8803    6.6398 C.ar    1  UNL1        0.1388
      7 C          15.1323   44.4165    5.7331 C.ar    1  UNL1        0.0384
      8 C          13.8671   43.8421    5.5769 C.ar    1  UNL1        0.0223
      9 C          13.5109   42.7203    6.3276 C.ar    1  UNL1        0.0831
     10 C          11.9576   41.0715    6.9213 C.ar    1  UNL1        0.1621
     11 N          10.7815   40.4230    6.9549 N.ar    1  UNL1       -0.2329
     12 N          10.8649   39.4367    7.8409 N.ar    1  UNL1       -0.1527
     13 N          12.2709   42.1645    6.1808 N.ar    1  UNL1       -0.2268
     14 C          11.8743   37.3630    9.8017 C.2     1  UNL1        0.2267
     15 N          12.5337   38.5710    9.4115 N.am    1  UNL1       -0.2679
     16 O          10.6836   37.1357    9.4535 O.2     1  UNL1       -0.2747
     17 H          13.3496   38.8152    9.9054 H       1  UNL1        0.1563
     18 C          12.5914   36.4023   10.6915 C.3     1  UNL1        0.0769
     19 C          13.1021   35.2177    9.8940 C.3     1  UNL1        0.0096
     20 C          13.7463   37.0871   11.3970 C.3     1  UNL1        0.0096
     21 C          18.2789   44.0549    7.7076 C.3     1  UNL1        0.2525
     22 O          17.3075   44.4864    6.7645 O.3     1  UNL1       -0.4714
     23 C           9.5918   40.7117    6.1682 C.3     1  UNL1        0.1292
     24 C           9.2446   39.5248    5.2834 C.3     1  UNL1        0.0264
     25 C           9.6019   38.4678    3.0543 C.3     1  UNL1        0.0001
     26 C          10.0481   39.5702    3.9964 C.3     1  UNL1        0.0021
@<TRIPOS>BOND
     1    25    26    1
     2    26    24    1
     3    24    23    1
     4    23    11    1
     5     1    15    1
     6     1     2   ar
     7    18    14    1
     8    18    19    1
     9    18    20    1
    10     3     4   ar
    11     5     6   ar
    12     6    22    1
    13    21    22    1
    14     7     8   ar
    15     9    13   ar
    16     9     4   ar
    17    10    11   ar
    18    10     2   ar
    19    11    12   ar
    20    15    14   am
    21     1    12   ar
    22    14    16    2
    23     2     3   ar
    24     4     5   ar
    25     6     7   ar
    26     8     9   ar
    27    10    13   ar
    28    15    17    1
@<TRIPOS>MOLECULE
MolPort-002-305-695 5557033 PubChem-1628717 ZINC000005557033 ZINC05557033
 26 28 0 0 0
SMALL
GASTEIGER

@<TRIPOS>ATOM
      1 C          11.4591   41.6540    8.9121 C.ar    1  UNL1        0.1568
      2 C          12.6493   41.0257    9.2443 C.ar    1  UNL1        0.0689
      3 C          13.0128   40.0734   10.1911 C.ar    1  UNL1        0.0075
      4 C          14.3713   39.7171   10.2471 C.ar    1  UNL1        0.0209
      5 C          14.8109   38.7586   11.1618 C.ar    1  UNL1        0.0384
      6 C          16.1692   38.4040   11.2181 C.ar    1  UNL1        0.1388
      7 C          17.0817   39.0184   10.3521 C.ar    1  UNL1        0.0384
      8 C          16.6564   39.9814    9.4320 C.ar    1  UNL1        0.0223
      9 C          15.3086   40.3396    9.3673 C.ar    1  UNL1        0.0831
     10 C          13.5773   41.6091    8.4321 C.ar    1  UNL1        0.1621
     11 N          12.9937   42.5456    7.6659 N.ar    1  UNL1       -0.2329
     12 N          11.6979   42.5854    7.9558 N.ar    1  UNL1       -0.1527
     13 N          14.8948   41.2873    8.4736 N.ar    1  UNL1       -0.2268
     14 C           9.4692   42.4348   10.3029 C.2     1  UNL1        0.2267
     15 N          10.1723   41.4701    9.5146 N.am    1  UNL1       -0.2679
     16 O          10.0692   43.4308   10.7911 O.2     1  UNL1       -0.2747
     17 H           9.7319   40.6009    9.3733 H       1  UNL1        0.1563
     18 C           8.0241   42.2092   10.6029 C.3     1  UNL1        0.0769
     19 C           7.3560   41.4570    9.4680 C.3     1  UNL1        0.0096
     20 C           7.8612   41.4398   11.8998 C.3     1  UNL1        0.0096
     21 C          17.8388   36.7167   11.9142 C.3     1  UNL1        0.2525
     22 O          16.6378   37.4472   12.1225 O.3     1  UNL1       -0.4714
     23 C          13.6308   43.3930    6.6691 C.3     1  UNL1        0.1292
     24 C          15.1197   43.0927    6.5965 C.3     1  UNL1        0.0264
     25 C          17.4111   44.0472    6.8246 C.3     1  UNL1        0.0001
     26 C          15.9269   44.3614    6.8038 C.3     1  UNL1        0.0021
@<TRIPOS>BOND
     1    25    26    1
     2    26    24    1
     3    24    23    1
     4    23    11    1
     5     1    15    1
     6     1     2   ar
     7    18    14    1
     8    18    19    1
     9    18    20    1
    10     3     4   ar
    11     5     6   ar
    12     6    22    1
    13    21    22    1
    14     7     8   ar
    15     9    13   ar
    16     9     4   ar
    17    10    11   ar
    18    10     2   ar
    19    11    12   ar
    20    15    14   am
    21     1    12   ar
    22    14    16    2
    23     2     3   ar
    24     4     5   ar
    25     6     7   ar
    26     8     9   ar
    27    10    13   ar
    28    15    17    1
@<TRIPOS>MOLECULE
MolPort-002-305-695 5557033 PubChem-1628717 ZINC000005557033 ZINC05557033
 26 28 0 0 0
SMALL
GASTEIGER

@<TRIPOS>ATOM
      1 C          12.8066   41.7873    7.3128 C.ar    1  UNL1        0.1568
      2 C          11.7033   41.7621    8.1516 C.ar    1  UNL1        0.0689
      3 C          11.5263   41.8811    9.5264 C.ar    1  UNL1        0.0075
      4 C          10.2145   41.7490   10.0136 C.ar    1  UNL1        0.0209
      5 C           9.9552   41.8693   11.3800 C.ar    1  UNL1        0.0384
      6 C           8.6438   41.7357   11.8662 C.ar    1  UNL1        0.1388
      7 C           7.5967   41.4794   10.9729 C.ar    1  UNL1        0.0384
      8 C           7.8416   41.3546    9.6020 C.ar    1  UNL1        0.0223
      9 C           9.1408   41.4871    9.1087 C.ar    1  UNL1        0.0831
     10 C          10.6539   41.4959    7.3215 C.ar    1  UNL1        0.1621
     11 N          11.0914   41.3507    6.0596 N.ar    1  UNL1       -0.2329
     12 N          12.4088   41.5213    6.0440 N.ar    1  UNL1       -0.1527
     13 N           9.3808   41.3563    7.7695 N.ar    1  UNL1       -0.2268
     14 C          15.1049   42.8654    7.0693 C.2     1  UNL1        0.2267
     15 N          14.1818   41.9572    7.6772 N.am    1  UNL1       -0.2679
     16 O          14.8584   43.3807    5.9449 O.2     1  UNL1       -0.2747
     17 H          14.5224   41.3983    8.4127 H       1  UNL1        0.1563
     18 C          16.4038   43.1415    7.7518 C.3     1  UNL1        0.0769
     19 C          16.8974   41.9045    8.4772 C.3     1  UNL1        0.0096
     20 C          17.4455   43.6044    6.7514 C.3     1  UNL1        0.0096
     21 C           9.1013   41.1797   14.2328 C.3     1  UNL1        0.2525
     22 O           8.3542   41.8524   13.2284 O.3     1  UNL1       -0.4714
     23 C          10.2942   41.0615    4.8770 C.3     1  UNL1        0.1292
     24 C          10.7698   39.7736    4.2232 C.3     1  UNL1        0.0264
     25 C           9.9233   37.6318    3.2696 C.3     1  UNL1        0.0001
     26 C           9.6293   39.1057    3.4768 C.3     1  UNL1        0.0021
@<TRIPOS>BOND
     1    25    26    1
     2    26    24    1
     3    24    23    1
     4    23    11    1
     5     1    15    1
     6     1     2   ar
     7    18    14    1
     8    18    19    1
     9    18    20    1
    10     3     4   ar
    11     5     6   ar
    12     6    22    1
    13    21    22    1
    14     7     8   ar
    15     9    13   ar
    16     9     4   ar
    17    10    11   ar
    18    10     2   ar
    19    11    12   ar
    20    15    14   am
    21     1    12   ar
    22    14    16    2
    23     2     3   ar
    24     4     5   ar
    25     6     7   ar
    26     8     9   ar
    27    10    13   ar
    28    15    17    1
@<TRIPOS>MOLECULE
MolPort-002-305-695 5557033 PubChem-1628717 ZINC000005557033 ZINC05557033
 26 28 0 0 0
SMALL
GASTEIGER

@<TRIPOS>ATOM
      1 C          11.2893   41.5818    7.1369 C.ar    1  UNL1        0.1568
      2 C          10.4686   41.5955    8.2539 C.ar    1  UNL1        0.0689
      3 C          10.6934   41.5156    9.6245 C.ar    1  UNL1        0.0075
      4 C           9.5608   41.5155   10.4569 C.ar    1  UNL1        0.0209
      5 C           9.7059   41.4513   11.8438 C.ar    1  UNL1        0.0384
      6 C           8.5732   41.4498   12.6750 C.ar    1  UNL1        0.1388
      7 C           7.2959   41.5116   12.1050 C.ar    1  UNL1        0.0384
      8 C           7.1350   41.5745   10.7175 C.ar    1  UNL1        0.0223
      9 C           8.2542   41.5779    9.8831 C.ar    1  UNL1        0.0831
     10 C           9.2041   41.6378    7.7435 C.ar    1  UNL1        0.1621
     11 N           9.2500   41.6324    6.4009 N.ar    1  UNL1       -0.2329
     12 N          10.5218   41.5924    6.0190 N.ar    1  UNL1       -0.1527
     13 N           8.0960   41.6306    8.5265 N.ar    1  UNL1       -0.2268
     14 C          13.6366   42.5399    6.8611 C.2     1  UNL1        0.2267
     15 N          12.7172   41.4700    7.0989 N.am    1  UNL1       -0.2679
     16 O          13.2452   43.6278    6.3572 O.2     1  UNL1       -0.2747
     17 H          13.1004   40.5759    7.2501 H       1  UNL1        0.1563
     18 C          15.0855   42.3264    7.1509 C.3     1  UNL1        0.0769
     19 C          15.8064   43.6556    7.2682 C.3     1  UNL1        0.0096
     20 C          15.2632   41.5274    8.4279 C.3     1  UNL1        0.0096
     21 C           9.8395   40.8712   14.7196 C.3     1  UNL1        0.2525
     22 O           8.6880   41.3876   14.0664 O.3     1  UNL1       -0.4714
     23 C           8.1244   41.6697    5.4793 C.3     1  UNL1        0.1292
     24 C           6.8677   42.1301    6.2010 C.3     1  UNL1        0.0264
     25 C           5.8467   44.1271    7.2889 C.3     1  UNL1        0.0001
     26 C           6.7754   43.6452    6.1901 C.3     1  UNL1        0.0021
@<TRIPOS>BOND
     1    25    26    1
     2    26    24    1
     3    24    23    1
     4    23    11    1
     5     1    15    1
     6     1     2   ar
     7    18    14    1
     8    18    19    1
     9    18    20    1
    10     3     4   ar
    11     5     6   ar
    12     6    22    1
    13    21    22    1
    14     7     8   ar
    15     9    13   ar
    16     9     4   ar
    17    10    11   ar
    18    10     2   ar
    19    11    12   ar
    20    15    14   am
    21     1    12   ar
    22    14    16    2
    23     2     3   ar
    24     4     5   ar
    25     6     7   ar
    26     8     9   ar
    27    10    13   ar
    28    15    17    1
@<TRIPOS>MOLECULE
MolPort-002-305-695 5557033 PubChem-1628717 ZINC000005557033 ZINC05557033
 26 28 0 0 0
SMALL
GASTEIGER

@<TRIPOS>ATOM
      1 C          11.2554   39.4485    8.3716 C.ar    1  UNL1        0.1568
      2 C          12.1467   40.3940    7.8886 C.ar    1  UNL1        0.0689
      3 C          13.4697   40.7157    8.1741 C.ar    1  UNL1        0.0075
      4 C          14.0240   41.8060    7.4815 C.ar    1  UNL1        0.0209
      5 C          15.3500   42.1813    7.7039 C.ar    1  UNL1        0.0384
      6 C          15.9027   43.2721    7.0122 C.ar    1  UNL1        0.1388
      7 C          15.1158   43.9832    6.0983 C.ar    1  UNL1        0.0384
      8 C          13.7856   43.6200    5.8665 C.ar    1  UNL1        0.0223
      9 C          13.2276   42.5368    6.5477 C.ar    1  UNL1        0.0831
     10 C          11.4139   41.1266    7.0012 C.ar    1  UNL1        0.1621
     11 N          10.1517   40.6685    6.9586 N.ar    1  UNL1       -0.2329
     12 N          10.0423   39.6448    7.7981 N.ar    1  UNL1       -0.1527
     13 N          11.9247   42.1876    6.3272 N.ar    1  UNL1       -0.2268
     14 C          12.6215   37.5990    9.4748 C.2     1  UNL1        0.2267
     15 N          11.4856   38.4642    9.3869 N.am    1  UNL1       -0.2679
     16 O          13.3766   37.4216    8.4804 O.2     1  UNL1       -0.2747
     17 H          10.7999   38.3751   10.0877 H       1  UNL1        0.1563
     18 C          12.8625   36.8480   10.7424 C.3     1  UNL1        0.0769
     19 C          12.9875   35.3622   10.4654 C.3     1  UNL1        0.0096
     20 C          14.1153   37.3525   11.4326 C.3     1  UNL1        0.0096
     21 C          17.8249   43.7257    8.5017 C.3     1  UNL1        0.2525
     22 O          17.2272   43.6698    7.2137 O.3     1  UNL1       -0.4714
     23 C           9.0573   41.1719    6.1422 C.3     1  UNL1        0.1292
     24 C           7.9940   41.8099    7.0223 C.3     1  UNL1        0.0264
     25 C           6.6274   43.8944    7.0534 C.3     1  UNL1        0.0001
     26 C           7.1136   42.7359    6.2029 C.3     1  UNL1        0.0021
@<TRIPOS>BOND
     1    25    26    1
     2    26    24    1
     3    24    23    1
     4    23    11    1
     5     1    15    1
     6     1     2   ar
     7    18    14    1
     8    18    19    1
     9    18    20    1
    10     3     4   ar
    11     5     6   ar
    12     6    22    1
    13    21    22    1
    14     7     8   ar
    15     9    13   ar
    16     9     4   ar
    17    10    11   ar
    18    10     2   ar
    19    11    12   ar
    20    15    14   am
    21     1    12   ar
    22    14    16    2
    23     2     3   ar
    24     4     5   ar
    25     6     7   ar
    26     8     9   ar
    27    10    13   ar
    28    15    17    1
@<TRIPOS>MOLECULE
MolPort-002-305-695 5557033 PubChem-1628717 ZINC000005557033 ZINC05557033
 26 28 0 0 0
SMALL
GASTEIGER

@<TRIPOS>ATOM
      1 C          12.8331   42.1414    7.8250 C.ar    1  UNL1        0.1568
      2 C          13.2382   41.1235    8.6744 C.ar    1  UNL1        0.0689
      3 C          14.4746   40.6513    9.1030 C.ar    1  UNL1        0.0075
      4 C          14.4692   39.5335    9.9550 C.ar    1  UNL1        0.0209
      5 C          15.6698   39.0099   10.4378 C.ar    1  UNL1        0.0384
      6 C          15.6635   37.8916   11.2882 C.ar    1  UNL1        0.1388
      7 C          14.4456   37.3028   11.6489 C.ar    1  UNL1        0.0384
      8 C          13.2353   37.8151   11.1717 C.ar    1  UNL1        0.0223
      9 C          13.2309   38.9267   10.3273 C.ar    1  UNL1        0.0831
     10 C          12.0775   40.5065    9.0397 C.ar    1  UNL1        0.1621
     11 N          11.0328   41.0990    8.4377 N.ar    1  UNL1       -0.2329
     12 N          11.4848   42.0976    7.6871 N.ar    1  UNL1       -0.1527
     13 N          12.0479   39.4217    9.8542 N.ar    1  UNL1       -0.2268
     14 C          15.0773   42.9590    6.9312 C.2     1  UNL1        0.2267
     15 N          13.6599   43.0579    7.0976 N.am    1  UNL1       -0.2679
     16 O          15.7646   42.2104    7.6780 O.2     1  UNL1       -0.2747
     17 H          13.2120   43.8254    6.6738 H       1  UNL1        0.1563
     18 C          15.7464   43.8121    5.9048 C.3     1  UNL1        0.0769
     19 C          15.0895   45.1774    5.8369 C.3     1  UNL1        0.0096
     20 C          17.2231   43.9639    6.2160 C.3     1  UNL1        0.0096
     21 C          18.0246   37.2128   10.9999 C.3     1  UNL1        0.2525
     22 O          16.8496   37.3468   11.7877 O.3     1  UNL1       -0.4714
     23 C           9.6265   40.7460    8.5615 C.3     1  UNL1        0.1292
     24 C           8.8188   41.9517    9.0153 C.3     1  UNL1        0.0264
     25 C           9.7744   43.7412   10.4638 C.3     1  UNL1        0.0001
     26 C           9.1960   42.3389   10.4337 C.3     1  UNL1        0.0021
@<TRIPOS>BOND
     1    25    26    1
     2    26    24    1
     3    24    23    1
     4    23    11    1
     5     1    15    1
     6     1     2   ar
     7    18    14    1
     8    18    19    1
     9    18    20    1
    10     3     4   ar
    11     5     6   ar
    12     6    22    1
    13    21    22    1
    14     7     8   ar
    15     9    13   ar
    16     9     4   ar
    17    10    11   ar
    18    10     2   ar
    19    11    12   ar
    20    15    14   am
    21     1    12   ar
    22    14    16    2
    23     2     3   ar
    24     4     5   ar
    25     6     7   ar
    26     8     9   ar
    27    10    13   ar
    28    15    17    1
@<TRIPOS>MOLECULE
MolPort-002-305-695 5557033 PubChem-1628717 ZINC000005557033 ZINC05557033
 26 28 0 0 0
SMALL
GASTEIGER

@<TRIPOS>ATOM
      1 C          14.3858   40.9675    8.4091 C.ar    1  UNL1        0.1568
      2 C          13.2010   40.4035    7.9621 C.ar    1  UNL1        0.0689
      3 C          12.5254   40.4013    6.7460 C.ar    1  UNL1        0.0075
      4 C          11.2893   39.7334    6.7053 C.ar    1  UNL1        0.0209
      5 C          10.5584   39.6761    5.5173 C.ar    1  UNL1        0.0384
      6 C           9.3222   39.0096    5.4779 C.ar    1  UNL1        0.1388
      7 C           8.8252   38.4032    6.6378 C.ar    1  UNL1        0.0384
      8 C           9.5452   38.4539    7.8353 C.ar    1  UNL1        0.0223
      9 C          10.7751   39.1125    7.8844 C.ar    1  UNL1        0.0831
     10 C          12.6691   39.8123    9.0705 C.ar    1  UNL1        0.1621
     11 N          13.4695   40.0175   10.1298 N.ar    1  UNL1       -0.2329
     12 N          14.5206   40.7287    9.7372 N.ar    1  UNL1       -0.1527
     13 N          11.4744   39.1692    9.0574 N.ar    1  UNL1       -0.2268
     14 C          15.0405   43.0616    7.1090 C.2     1  UNL1        0.2267
     15 N          15.3098   41.7716    7.6658 N.am    1  UNL1       -0.2679
     16 O          13.8554   43.4685    6.9658 O.2     1  UNL1       -0.2747
     17 H          16.2118   41.4030    7.5255 H       1  UNL1        0.1563
     18 C          16.1825   43.8954    6.6300 C.3     1  UNL1        0.0769
     19 C          15.6789   45.1963    6.0348 C.3     1  UNL1        0.0096
     20 C          17.1460   44.1850    7.7650 C.3     1  UNL1        0.0096
     21 C           9.1507   38.6682    3.0339 C.3     1  UNL1        0.2525
     22 O           8.5694   38.9352    4.3029 O.3     1  UNL1       -0.4714
     23 C          13.2645   39.5535   11.4938 C.3     1  UNL1        0.1292
     24 C          14.2979   38.4971   11.8517 C.3     1  UNL1        0.0264
     25 C          14.5338   36.6957   10.1449 C.3     1  UNL1        0.0001
     26 C          13.8235   37.1227   11.4158 C.3     1  UNL1        0.0021
@<TRIPOS>BOND
     1    25    26    1
     2    26    24    1
     3    24    23    1
     4    23    11    1
     5     1    15    1
     6     1     2   ar
     7    18    14    1
     8    18    19    1
     9    18    20    1
    10     3     4   ar
    11     5     6   ar
    12     6    22    1
    13    21    22    1
    14     7     8   ar
    15     9    13   ar
    16     9     4   ar
    17    10    11   ar
    18    10     2   ar
    19    11    12   ar
    20    15    14   am
    21     1    12   ar
    22    14    16    2
    23     2     3   ar
    24     4     5   ar
    25     6     7   ar
    26     8     9   ar
    27    10    13   ar
    28    15    17    1
@<TRIPOS>MOLECULE
MolPort-002-305-695 5557033 PubChem-1628717 ZINC000005557033 ZINC05557033
 26 28 0 0 0
SMALL
GASTEIGER

@<TRIPOS>ATOM
      1 C          12.7557   42.0556    7.4707 C.ar    1  UNL1        0.1568
      2 C          13.0844   41.0378    8.3525 C.ar    1  UNL1        0.0689
      3 C          14.2677   40.6160    8.9503 C.ar    1  UNL1        0.0075
      4 C          14.1957   39.4782    9.7725 C.ar    1  UNL1        0.0209
      5 C          15.3384   39.0020   10.4177 C.ar    1  UNL1        0.0384
      6 C          15.2658   37.8638   11.2382 C.ar    1  UNL1        0.1388
      7 C          14.0405   37.2074   11.4049 C.ar    1  UNL1        0.0384
      8 C          12.8880   37.6717   10.7636 C.ar    1  UNL1        0.0223
      9 C          12.9495   38.8027    9.9474 C.ar    1  UNL1        0.0831
     10 C          11.9165   40.3559    8.5318 C.ar    1  UNL1        0.1621
     11 N          10.9418   40.9116    7.7930 N.ar    1  UNL1       -0.2329
     12 N          11.4462   41.9495    7.1348 N.ar    1  UNL1       -0.1527
     13 N          11.8244   39.2510    9.3139 N.ar    1  UNL1       -0.2268
     14 C          15.0579   42.9435    6.8261 C.2     1  UNL1        0.2267
     15 N          13.6313   43.0293    6.8893 N.am    1  UNL1       -0.2679
     16 O          15.6893   42.1341    7.5586 O.2     1  UNL1       -0.2747
     17 H          13.2133   43.8301    6.4979 H       1  UNL1        0.1563
     18 C          15.7999   43.8793    5.9301 C.3     1  UNL1        0.0769
     19 C          15.1012   45.2240    5.8690 C.3     1  UNL1        0.0096
     20 C          17.2274   44.0596    6.4098 C.3     1  UNL1        0.0096
     21 C          17.6890   37.3728   11.3152 C.3     1  UNL1        0.2525
     22 O          16.3927   37.3652   11.8974 O.3     1  UNL1       -0.4714
     23 C           9.5527   40.4874    7.7018 C.3     1  UNL1        0.1292
     24 C           8.7296   41.5335    6.9668 C.3     1  UNL1        0.0264
     25 C           7.5357   39.4730    6.2304 C.3     1  UNL1        0.0001
     26 C           7.3948   40.9520    6.5377 C.3     1  UNL1        0.0021
@<TRIPOS>BOND
     1    25    26    1
     2    26    24    1
     3    24    23    1
     4    23    11    1
     5     1    15    1
     6     1     2   ar
     7    18    14    1
     8    18    19    1
     9    18    20    1
    10     3     4   ar
    11     5     6   ar
    12     6    22    1
    13    21    22    1
    14     7     8   ar
    15     9    13   ar
    16     9     4   ar
    17    10    11   ar
    18    10     2   ar
    19    11    12   ar
    20    15    14   am
    21     1    12   ar
    22    14    16    2
    23     2     3   ar
    24     4     5   ar
    25     6     7   ar
    26     8     9   ar
    27    10    13   ar
    28    15    17    1
@<TRIPOS>MOLECULE
MolPort-002-305-695 5557033 PubChem-1628717 ZINC000005557033 ZINC05557033
 26 28 0 0 0
SMALL
GASTEIGER

@<TRIPOS>ATOM
      1 C          14.1803   41.5180    7.7814 C.ar    1  UNL1        0.1568
      2 C          12.8741   41.1312    7.5249 C.ar    1  UNL1        0.0689
      3 C          11.8009   41.7171    6.8613 C.ar    1  UNL1        0.0075
      4 C          10.5883   41.0063    6.8593 C.ar    1  UNL1        0.0209
      5 C           9.4700   41.5231    6.2028 C.ar    1  UNL1        0.0384
      6 C           8.2579   40.8126    6.2025 C.ar    1  UNL1        0.1388
      7 C           8.1762   39.5825    6.8660 C.ar    1  UNL1        0.0384
      8 C           9.2874   39.0532    7.5293 C.ar    1  UNL1        0.0223
      9 C          10.4966   39.7508    7.5342 C.ar    1  UNL1        0.0831
     10 C          12.7423   39.9372    8.1715 C.ar    1  UNL1        0.1621
     11 N          13.8892   39.6241    8.7970 N.ar    1  UNL1       -0.2329
     12 N          14.7746   40.5881    8.5695 N.ar    1  UNL1       -0.1527
     13 N          11.5801   39.2371    8.1902 N.ar    1  UNL1       -0.2268
     14 C          16.2323   42.9950    7.4470 C.2     1  UNL1        0.2267
     15 N          14.8262   42.7370    7.3946 N.am    1  UNL1       -0.2679
     16 O          16.9975   42.2653    8.1344 O.2     1  UNL1       -0.2747
     17 H          14.2500   43.4630    7.0625 H       1  UNL1        0.1563
     18 C          16.7760   44.1880    6.7328 C.3     1  UNL1        0.0769
     19 C          17.7612   43.7633    5.6608 C.3     1  UNL1        0.0096
     20 C          15.6533   44.9970    6.1120 C.3     1  UNL1        0.0096
     21 C           6.5771   42.5880    5.8262 C.3     1  UNL1        0.2525
     22 O           7.1226   41.3046    5.5528 O.3     1  UNL1       -0.4714
     23 C          14.1643   38.4384    9.5946 C.3     1  UNL1        0.1292
     24 C          13.6113   38.6095   11.0007 C.3     1  UNL1        0.0264
     25 C          15.9966   38.0740   11.4879 C.3     1  UNL1        0.0001
     26 C          14.7433   38.7583   12.0008 C.3     1  UNL1        0.0021
@<TRIPOS>BOND
     1    25    26    1
     2    26    24    1
     3    24    23    1
     4    23    11    1
     5     1    15    1
     6     1     2   ar
     7    18    14    1
     8    18    19    1
     9    18    20    1
    10     3     4   ar
    11     5     6   ar
    12     6    22    1
    13    21    22    1
    14     7     8   ar
    15     9    13   ar
    16     9     4   ar
    17    10    11   ar
    18    10     2   ar
    19    11    12   ar
    20    15    14   am
    21     1    12   ar
    22    14    16    2
    23     2     3   ar
    24     4     5   ar
    25     6     7   ar
    26     8     9   ar
    27    10    13   ar
    28    15    17    1
