@<TRIPOS>MOLECULE
MolPort-001-550-176 1150979 CSC028001457 CSSS00028001457 MCULE-9900168954 PubChem-1321321 Z29703923 ZINC000001150979 ZINC01150979
 32 34 0 0 0
SMALL
GASTEIGER

@<TRIPOS>ATOM
      1 C          14.2546   40.2694    8.7120 C.ar    1  UNL1        0.0881
      2 C          13.8371   38.9402    8.9242 C.ar    1  UNL1        0.1535
      3 C          14.7353   38.0222    9.4891 C.ar    1  UNL1        0.0559
      4 C          16.0206   38.4101    9.8743 C.ar    1  UNL1        0.0881
      5 C          16.4394   39.7382    9.6592 C.ar    1  UNL1        0.1535
      6 C          15.5408   40.6566    9.0950 C.ar    1  UNL1        0.0559
      7 C          13.7323   42.2249    7.1433 C.2     1  UNL1        0.2496
      8 O          12.8380   42.6030    6.3405 O.2     1  UNL1       -0.2698
      9 N          13.3861   41.2631    8.1501 N.am    1  UNL1       -0.2779
     10 H          12.4619   41.2875    8.4884 H       1  UNL1        0.1553
     11 C          17.6468   43.9810    6.9403 C.ar    1  UNL1        0.1387
     12 C          17.4241   42.6946    6.4250 C.ar    1  UNL1        0.0370
     13 C          16.1515   42.1219    6.4883 C.ar    1  UNL1        0.0076
     14 C          15.0819   42.8260    7.0595 C.ar    1  UNL1        0.0539
     15 C          15.3117   44.1064    7.5832 C.ar    1  UNL1        0.0076
     16 C          16.5847   44.6803    7.5210 C.ar    1  UNL1        0.0370
     17 C          19.5682   45.0763    8.0477 C.3     1  UNL1        0.2525
     18 O          18.9069   44.5833    6.8905 O.3     1  UNL1       -0.4714
     19 C          16.5648   36.5468   11.5248 C.2     1  UNL1        0.2496
     20 O          15.3657   36.4130   11.8932 O.2     1  UNL1       -0.2698
     21 N          16.8896   37.4159   10.4319 N.am    1  UNL1       -0.2779
     22 H          17.7839   37.3221   10.0310 H       1  UNL1        0.1553
     23 C          17.6273   35.7697   12.1862 C.ar    1  UNL1        0.0537
     24 C          18.6457   35.1710   11.4292 C.ar    1  UNL1        0.0045
     25 C          19.6525   34.4323   12.0577 C.ar    1  UNL1        0.0001
     26 C          19.6480   34.2860   13.4474 C.ar    1  UNL1        0.0000
     27 C          18.6372   34.8785   14.2090 C.ar    1  UNL1        0.0001
     28 C          17.6303   35.6173   13.5806 C.ar    1  UNL1        0.0045
     29 C          11.4316   39.4512    8.6182 C.3     1  UNL1        0.2525
     30 O          12.5328   38.5530    8.5960 O.3     1  UNL1       -0.4701
     31 C          18.7761   40.2334    8.9993 C.3     1  UNL1        0.2525
     32 O          17.7479   40.1223    9.9741 O.3     1  UNL1       -0.4701
@<TRIPOS>BOND
     1    17    18    1
     2    11    18    1
     3    12    13   ar
     4    14    15   ar
     5    14     7    1
     6    16    11   ar
     7     7     9   am
     8     2    30    1
     9     2     3   ar
    10    29    30    1
    11     4    21    1
    12     4     5   ar
    13    19    23    1
    14    24    25   ar
    15    26    27   ar
    16    28    23   ar
    17     5    32    1
    18    31    32    1
    19     6     1   ar
    20     9     1    1
    21    21    19   am
    22    11    12   ar
    23    13    14   ar
    24    15    16   ar
    25     7     8    2
    26     1     2   ar
    27     3     4   ar
    28    19    20    2
    29    23    24   ar
    30    25    26   ar
    31    27    28   ar
    32     5     6   ar
    33     9    10    1
    34    21    22    1
@<TRIPOS>MOLECULE
MolPort-001-550-176 1150979 CSC028001457 CSSS00028001457 MCULE-9900168954 PubChem-1321321 Z29703923 ZINC000001150979 ZINC01150979
 32 34 0 0 0
SMALL
GASTEIGER

@<TRIPOS>ATOM
      1 C          13.5344   37.7679    6.6077 C.ar    1  UNL1        0.0881
      2 C          14.3485   36.7806    6.0172 C.ar    1  UNL1        0.1535
      3 C          15.3456   36.1643    6.7881 C.ar    1  UNL1        0.0559
      4 C          15.5227   36.4874    8.1354 C.ar    1  UNL1        0.0881
      5 C          14.7111   37.4769    8.7251 C.ar    1  UNL1        0.1535
      6 C          13.7132   38.0927    7.9543 C.ar    1  UNL1        0.0559
      7 C          11.7904   39.6160    6.2899 C.2     1  UNL1        0.2496
      8 O          11.3731   40.4033    5.3993 O.2     1  UNL1       -0.2698
      9 N          12.4888   38.4306    5.8830 N.am    1  UNL1       -0.2779
     10 H          12.2245   38.0330    5.0220 H       1  UNL1        0.1553
     11 C          10.9378   40.5038   10.4049 C.ar    1  UNL1        0.1387
     12 C          10.1399   39.5879    9.7018 C.ar    1  UNL1        0.0370
     13 C          10.4161   39.2962    8.3638 C.ar    1  UNL1        0.0076
     14 C          11.4955   39.9077    7.7104 C.ar    1  UNL1        0.0539
     15 C          12.2830   40.8306    8.4136 C.ar    1  UNL1        0.0076
     16 C          12.0073   41.1238    9.7521 C.ar    1  UNL1        0.0370
     17 C           9.7784   41.8318   12.1398 C.3     1  UNL1        0.2525
     18 O          10.6898   40.8158   11.7444 O.3     1  UNL1       -0.4714
     19 C          17.0539   34.5040    8.5973 C.2     1  UNL1        0.2496
     20 O          16.7674   33.9269    7.5127 O.2     1  UNL1       -0.2698
     21 N          16.5703   35.8282    8.8581 N.am    1  UNL1       -0.2779
     22 H          16.9929   36.3261    9.5948 H       1  UNL1        0.1553
     23 C          17.9290   33.8355    9.5759 C.ar    1  UNL1        0.0537
     24 C          18.1649   32.4550    9.4916 C.ar    1  UNL1        0.0045
     25 C          18.9940   31.8213   10.4218 C.ar    1  UNL1        0.0001
     26 C          19.5927   32.5631   11.4436 C.ar    1  UNL1        0.0000
     27 C          19.3627   33.9385   11.5353 C.ar    1  UNL1        0.0001
     28 C          18.5337   34.5723   10.6050 C.ar    1  UNL1        0.0045
     29 C          14.6915   35.2222    4.1212 C.3     1  UNL1        0.2525
     30 O          14.1433   36.4063    4.6842 O.3     1  UNL1       -0.4701
     31 C          14.2229   37.2860   11.1471 C.3     1  UNL1        0.2525
     32 O          14.9251   37.8615   10.0537 O.3     1  UNL1       -0.4701
@<TRIPOS>BOND
     1    17    18    1
     2    11    18    1
     3    12    13   ar
     4    14    15   ar
     5    14     7    1
     6    16    11   ar
     7     7     9   am
     8     2    30    1
     9     2     3   ar
    10    29    30    1
    11     4    21    1
    12     4     5   ar
    13    19    23    1
    14    24    25   ar
    15    26    27   ar
    16    28    23   ar
    17     5    32    1
    18    31    32    1
    19     6     1   ar
    20     9     1    1
    21    21    19   am
    22    11    12   ar
    23    13    14   ar
    24    15    16   ar
    25     7     8    2
    26     1     2   ar
    27     3     4   ar
    28    19    20    2
    29    23    24   ar
    30    25    26   ar
    31    27    28   ar
    32     5     6   ar
    33     9    10    1
    34    21    22    1
@<TRIPOS>MOLECULE
MolPort-001-550-176 1150979 CSC028001457 CSSS00028001457 MCULE-9900168954 PubChem-1321321 Z29703923 ZINC000001150979 ZINC01150979
 32 34 0 0 0
SMALL
GASTEIGER

@<TRIPOS>ATOM
      1 C           9.8468   41.0166    6.6476 C.ar    1  UNL1        0.0881
      2 C          10.2740   42.1927    5.9991 C.ar    1  UNL1        0.1535
      3 C          11.6378   42.5219    6.0064 C.ar    1  UNL1        0.0559
      4 C          12.5804   41.6897    6.6146 C.ar    1  UNL1        0.0881
      5 C          12.1531   40.5155    7.2659 C.ar    1  UNL1        0.1535
      6 C          10.7892   40.1857    7.2578 C.ar    1  UNL1        0.0559
      7 C           7.9741   39.2744    6.5237 C.2     1  UNL1        0.2496
      8 O           6.9111   38.9591    7.1219 O.2     1  UNL1       -0.2698
      9 N           8.4706   40.6125    6.6698 N.am    1  UNL1       -0.2779
     10 H           7.8013   41.3230    6.7978 H       1  UNL1        0.1553
     11 C           9.9256   36.4151    3.9812 C.ar    1  UNL1        0.1387
     12 C           9.4046   36.0149    5.2215 C.ar    1  UNL1        0.0370
     13 C           8.7680   36.9426    6.0496 C.ar    1  UNL1        0.0076
     14 C           8.6355   38.2800    5.6498 C.ar    1  UNL1        0.0539
     15 C           9.1675   38.6776    4.4148 C.ar    1  UNL1        0.0076
     16 C           9.8052   37.7505    3.5857 C.ar    1  UNL1        0.0370
     17 C          10.0547   35.1720    1.8468 C.3     1  UNL1        0.2525
     18 O          10.5658   35.5117    3.1285 O.3     1  UNL1       -0.4714
     19 C          14.8040   42.2081    7.7456 C.2     1  UNL1        0.2496
     20 O          14.4632   41.6792    8.8390 O.2     1  UNL1       -0.2698
     21 N          13.9548   42.0959    6.5959 N.am    1  UNL1       -0.2779
     22 H          14.3485   42.3162    5.7208 H       1  UNL1        0.1553
     23 C          16.1004   42.8991    7.6366 C.ar    1  UNL1        0.0537
     24 C          17.0164   42.8627    8.6988 C.ar    1  UNL1        0.0045
     25 C          18.2457   43.5204    8.5951 C.ar    1  UNL1        0.0001
     26 C          18.5678   44.2198    7.4290 C.ar    1  UNL1        0.0000
     27 C          17.6611   44.2617    6.3664 C.ar    1  UNL1        0.0001
     28 C          16.4318   43.6040    6.4700 C.ar    1  UNL1        0.0045
     29 C           8.0555   43.2879    5.8578 C.3     1  UNL1        0.2525
     30 O           9.3470   43.0054    5.3363 O.3     1  UNL1       -0.4701
     31 C          12.6940   38.6143    8.7605 C.3     1  UNL1        0.2525
     32 O          13.0776   39.7100    7.9407 O.3     1  UNL1       -0.4701
@<TRIPOS>BOND
     1    17    18    1
     2    11    18    1
     3    12    13   ar
     4    14    15   ar
     5    14     7    1
     6    16    11   ar
     7     7     9   am
     8     2    30    1
     9     2     3   ar
    10    29    30    1
    11     4    21    1
    12     4     5   ar
    13    19    23    1
    14    24    25   ar
    15    26    27   ar
    16    28    23   ar
    17     5    32    1
    18    31    32    1
    19     6     1   ar
    20     9     1    1
    21    21    19   am
    22    11    12   ar
    23    13    14   ar
    24    15    16   ar
    25     7     8    2
    26     1     2   ar
    27     3     4   ar
    28    19    20    2
    29    23    24   ar
    30    25    26   ar
    31    27    28   ar
    32     5     6   ar
    33     9    10    1
    34    21    22    1
@<TRIPOS>MOLECULE
MolPort-001-550-176 1150979 CSC028001457 CSSS00028001457 MCULE-9900168954 PubChem-1321321 Z29703923 ZINC000001150979 ZINC01150979
 32 34 0 0 0
SMALL
GASTEIGER

@<TRIPOS>ATOM
      1 C          10.5164   39.9372    8.4171 C.ar    1  UNL1        0.0881
      2 C          10.5642   41.3394    8.2835 C.ar    1  UNL1        0.1535
      3 C          11.8104   41.9838    8.2680 C.ar    1  UNL1        0.0559
      4 C          13.0016   41.2588    8.3488 C.ar    1  UNL1        0.0881
      5 C          12.9540   39.8572    8.4857 C.ar    1  UNL1        0.1535
      6 C          11.7076   39.2126    8.5003 C.ar    1  UNL1        0.0559
      7 C           8.8026   38.3251    7.4065 C.2     1  UNL1        0.2496
      8 O           8.0822   37.3488    7.7457 O.2     1  UNL1       -0.2698
      9 N           9.2790   39.2120    8.4287 N.am    1  UNL1       -0.2779
     10 H           8.6997   39.3349    9.2152 H       1  UNL1        0.1553
     11 C           9.5855   38.9617    3.2315 C.ar    1  UNL1        0.1387
     12 C           9.1618   40.0282    4.0395 C.ar    1  UNL1        0.0370
     13 C           8.9081   39.8242    5.3980 C.ar    1  UNL1        0.0076
     14 C           9.0800   38.5562    5.9714 C.ar    1  UNL1        0.0539
     15 C           9.4926   37.4912    5.1578 C.ar    1  UNL1        0.0076
     16 C           9.7462   37.6940    3.7983 C.ar    1  UNL1        0.0370
     17 C          10.5175   38.1514    1.0885 C.3     1  UNL1        0.2525
     18 O           9.8500   39.1328    1.8700 O.3     1  UNL1       -0.4714
     19 C          14.6520   42.9100    7.3282 C.2     1  UNL1        0.2496
     20 O          13.8133   43.3610    6.5008 O.2     1  UNL1       -0.2698
     21 N          14.2377   41.9841    8.3414 N.am    1  UNL1       -0.2779
     22 H          14.8536   41.8341    9.0947 H       1  UNL1        0.1553
     23 C          16.0494   43.3744    7.2845 C.ar    1  UNL1        0.0537
     24 C          16.8407   43.3562    8.4430 C.ar    1  UNL1        0.0045
     25 C          18.1660   43.7989    8.4009 C.ar    1  UNL1        0.0001
     26 C          18.7097   44.2636    7.2003 C.ar    1  UNL1        0.0000
     27 C          17.9285   44.2857    6.0419 C.ar    1  UNL1        0.0001
     28 C          16.6031   43.8430    6.0839 C.ar    1  UNL1        0.0045
     29 C           8.5685   42.4472    9.2484 C.3     1  UNL1        0.2525
     30 O           9.3799   42.0721    8.1436 O.3     1  UNL1       -0.4701
     31 C          14.1543   37.7533    9.0093 C.3     1  UNL1        0.2525
     32 O          14.1372   39.1256    8.6398 O.3     1  UNL1       -0.4701
@<TRIPOS>BOND
     1    17    18    1
     2    11    18    1
     3    12    13   ar
     4    14    15   ar
     5    14     7    1
     6    16    11   ar
     7     7     9   am
     8     2    30    1
     9     2     3   ar
    10    29    30    1
    11     4    21    1
    12     4     5   ar
    13    19    23    1
    14    24    25   ar
    15    26    27   ar
    16    28    23   ar
    17     5    32    1
    18    31    32    1
    19     6     1   ar
    20     9     1    1
    21    21    19   am
    22    11    12   ar
    23    13    14   ar
    24    15    16   ar
    25     7     8    2
    26     1     2   ar
    27     3     4   ar
    28    19    20    2
    29    23    24   ar
    30    25    26   ar
    31    27    28   ar
    32     5     6   ar
    33     9    10    1
    34    21    22    1
@<TRIPOS>MOLECULE
MolPort-001-550-176 1150979 CSC028001457 CSSS00028001457 MCULE-9900168954 PubChem-1321321 Z29703923 ZINC000001150979 ZINC01150979
 32 34 0 0 0
SMALL
GASTEIGER

@<TRIPOS>ATOM
      1 C          14.9469   39.5756    9.2906 C.ar    1  UNL1        0.0881
      2 C          14.0793   38.5198    9.6350 C.ar    1  UNL1        0.1535
      3 C          12.6953   38.6940    9.4848 C.ar    1  UNL1        0.0559
      4 C          12.1663   39.8797    8.9700 C.ar    1  UNL1        0.0881
      5 C          13.0334   40.9368    8.6287 C.ar    1  UNL1        0.1535
      6 C          14.4177   40.7622    8.7781 C.ar    1  UNL1        0.0559
      7 C          17.3179   40.5408    9.3569 C.2     1  UNL1        0.2496
      8 O          18.3802   40.4401   10.0267 O.2     1  UNL1       -0.2698
      9 N          16.3721   39.4631    9.4074 N.am    1  UNL1       -0.2779
     10 H          16.7371   38.5577    9.5346 H       1  UNL1        0.1553
     11 C          16.7269   43.9692    6.8379 C.ar    1  UNL1        0.1387
     12 C          15.8051   43.6745    7.8544 C.ar    1  UNL1        0.0370
     13 C          15.9959   42.5610    8.6761 C.ar    1  UNL1        0.0076
     14 C          17.1116   41.7301    8.5007 C.ar    1  UNL1        0.0539
     15 C          18.0240   42.0220    7.4766 C.ar    1  UNL1        0.0076
     16 C          17.8338   43.1355    6.6534 C.ar    1  UNL1        0.0370
     17 C          15.3211   45.4149    5.4057 C.3     1  UNL1        0.2525
     18 O          16.5665   45.0765    6.0005 O.3     1  UNL1       -0.4714
     19 C           9.9978   39.9344    7.6335 C.2     1  UNL1        0.2496
     20 O          10.5396   39.4934    6.5831 O.2     1  UNL1       -0.2698
     21 N          10.7420   39.9934    8.8574 N.am    1  UNL1       -0.2779
     22 H          10.2324   40.1227    9.6898 H       1  UNL1        0.1553
     23 C           8.5823   40.3423    7.6141 C.ar    1  UNL1        0.0537
     24 C           7.8089   40.1694    6.4563 C.ar    1  UNL1        0.0045
     25 C           6.4663   40.5585    6.4383 C.ar    1  UNL1        0.0001
     26 C           5.8874   41.1241    7.5775 C.ar    1  UNL1        0.0000
     27 C           6.6506   41.3004    8.7347 C.ar    1  UNL1        0.0001
     28 C           7.9932   40.9113    8.7528 C.ar    1  UNL1        0.0045
     29 C          14.0361   36.5884   11.1872 C.3     1  UNL1        0.2525
     30 O          14.5999   37.3056   10.0975 O.3     1  UNL1       -0.4701
     31 C          12.8044   42.6950    6.8974 C.3     1  UNL1        0.2525
     32 O          12.5126   42.1558    8.1796 O.3     1  UNL1       -0.4701
@<TRIPOS>BOND
     1    17    18    1
     2    11    18    1
     3    12    13   ar
     4    14    15   ar
     5    14     7    1
     6    16    11   ar
     7     7     9   am
     8     2    30    1
     9     2     3   ar
    10    29    30    1
    11     4    21    1
    12     4     5   ar
    13    19    23    1
    14    24    25   ar
    15    26    27   ar
    16    28    23   ar
    17     5    32    1
    18    31    32    1
    19     6     1   ar
    20     9     1    1
    21    21    19   am
    22    11    12   ar
    23    13    14   ar
    24    15    16   ar
    25     7     8    2
    26     1     2   ar
    27     3     4   ar
    28    19    20    2
    29    23    24   ar
    30    25    26   ar
    31    27    28   ar
    32     5     6   ar
    33     9    10    1
    34    21    22    1
@<TRIPOS>MOLECULE
MolPort-001-550-176 1150979 CSC028001457 CSSS00028001457 MCULE-9900168954 PubChem-1321321 Z29703923 ZINC000001150979 ZINC01150979
 32 34 0 0 0
SMALL
GASTEIGER

@<TRIPOS>ATOM
      1 C          10.9381   41.1351    9.2355 C.ar    1  UNL1        0.0881
      2 C          10.0303   40.1210    8.8697 C.ar    1  UNL1        0.1535
      3 C           8.7109   40.1795    9.3431 C.ar    1  UNL1        0.0559
      4 C           8.2741   41.2397   10.1407 C.ar    1  UNL1        0.0881
      5 C           9.1824   42.2520   10.5094 C.ar    1  UNL1        0.1535
      6 C          10.5018   42.1940   10.0351 C.ar    1  UNL1        0.0559
      7 C          12.7431   41.3838    7.4361 C.2     1  UNL1        0.2496
      8 O          13.8601   41.9401    7.2632 O.2     1  UNL1       -0.2698
      9 N          12.2978   41.1452    8.7790 N.am    1  UNL1       -0.2779
     10 H          12.9938   40.9713    9.4533 H       1  UNL1        0.1553
     11 C          10.4728   40.0708    4.0346 C.ar    1  UNL1        0.1387
     12 C          10.2003   41.3141    4.6262 C.ar    1  UNL1        0.0370
     13 C          10.9383   41.7442    5.7316 C.ar    1  UNL1        0.0076
     14 C          11.9627   40.9444    6.2580 C.ar    1  UNL1        0.0539
     15 C          12.2238   39.6981    5.6706 C.ar    1  UNL1        0.0076
     16 C          11.4856   39.2665    4.5650 C.ar    1  UNL1        0.0370
     17 C           9.3155   38.2669    2.8000 C.3     1  UNL1        0.2525
     18 O           9.7547   39.6124    2.9267 O.3     1  UNL1       -0.4714
     19 C           5.7552   41.1908    9.7602 C.2     1  UNL1        0.2496
     20 O           5.8639   40.8831    8.5417 O.2     1  UNL1       -0.2698
     21 N           6.9165   41.2271   10.6002 N.am    1  UNL1       -0.2779
     22 H           6.7692   41.2449   11.5734 H       1  UNL1        0.1553
     23 C           4.4257   41.4642   10.3328 C.ar    1  UNL1        0.0537
     24 C           3.2746   41.3615    9.5371 C.ar    1  UNL1        0.0045
     25 C           2.0136   41.6229   10.0809 C.ar    1  UNL1        0.0001
     26 C           1.8942   41.9897   11.4241 C.ar    1  UNL1        0.0000
     27 C           3.0355   42.0949   12.2236 C.ar    1  UNL1        0.0001
     28 C           4.2966   41.8334   11.6799 C.ar    1  UNL1        0.0045
     29 C           9.7422   37.8499    7.9207 C.3     1  UNL1        0.2525
     30 O          10.4398   39.0838    8.0238 O.3     1  UNL1       -0.4701
     31 C           8.2931   43.0461   12.6818 C.3     1  UNL1        0.2525
     32 O           8.7772   43.2816   11.3665 O.3     1  UNL1       -0.4701
@<TRIPOS>BOND
     1    17    18    1
     2    11    18    1
     3    12    13   ar
     4    14    15   ar
     5    14     7    1
     6    16    11   ar
     7     7     9   am
     8     2    30    1
     9     2     3   ar
    10    29    30    1
    11     4    21    1
    12     4     5   ar
    13    19    23    1
    14    24    25   ar
    15    26    27   ar
    16    28    23   ar
    17     5    32    1
    18    31    32    1
    19     6     1   ar
    20     9     1    1
    21    21    19   am
    22    11    12   ar
    23    13    14   ar
    24    15    16   ar
    25     7     8    2
    26     1     2   ar
    27     3     4   ar
    28    19    20    2
    29    23    24   ar
    30    25    26   ar
    31    27    28   ar
    32     5     6   ar
    33     9    10    1
    34    21    22    1
@<TRIPOS>MOLECULE
MolPort-001-550-176 1150979 CSC028001457 CSSS00028001457 MCULE-9900168954 PubChem-1321321 Z29703923 ZINC000001150979 ZINC01150979
 32 34 0 0 0
SMALL
GASTEIGER

@<TRIPOS>ATOM
      1 C           9.5927   39.7088    7.0619 C.ar    1  UNL1        0.0881
      2 C          10.2903   40.3717    6.0322 C.ar    1  UNL1        0.1535
      3 C          11.4924   41.0296    6.3329 C.ar    1  UNL1        0.0559
      4 C          12.0251   41.0106    7.6240 C.ar    1  UNL1        0.0881
      5 C          11.3261   40.3507    8.6543 C.ar    1  UNL1        0.1535
      6 C          10.1242   39.6919    8.3534 C.ar    1  UNL1        0.0559
      7 C           7.1067   39.5914    6.4586 C.2     1  UNL1        0.2496
      8 O           6.3227   38.9250    5.7318 O.2     1  UNL1       -0.2698
      9 N           8.3648   39.0065    6.8243 N.am    1  UNL1       -0.2779
     10 H           8.3874   38.0271    6.9217 H       1  UNL1        0.1553
     11 C           5.8549   43.4521    7.8644 C.ar    1  UNL1        0.1387
     12 C           5.6093   42.3070    8.6379 C.ar    1  UNL1        0.0370
     13 C           6.0168   41.0504    8.1837 C.ar    1  UNL1        0.0076
     14 C           6.6811   40.9187    6.9560 C.ar    1  UNL1        0.0539
     15 C           6.9143   42.0641    6.1814 C.ar    1  UNL1        0.0076
     16 C           6.5064   43.3219    6.6345 C.ar    1  UNL1        0.0370
     17 C           4.2352   45.3212    7.8952 C.3     1  UNL1        0.2525
     18 O           5.4623   44.7237    8.2911 O.3     1  UNL1       -0.4714
     19 C          14.0251   42.3947    6.8650 C.2     1  UNL1        0.2496
     20 O          13.5218   42.6517    5.7373 O.2     1  UNL1       -0.2698
     21 N          13.2498   41.7160    7.8619 N.am    1  UNL1       -0.2779
     22 H          13.5867   41.7362    8.7868 H       1  UNL1        0.1553
     23 C          15.3953   42.8377    7.1758 C.ar    1  UNL1        0.0537
     24 C          15.9492   43.9474    6.5199 C.ar    1  UNL1        0.0045
     25 C          17.2502   44.3658    6.8142 C.ar    1  UNL1        0.0001
     26 C          18.0072   43.6773    7.7659 C.ar    1  UNL1        0.0000
     27 C          17.4635   42.5706    8.4236 C.ar    1  UNL1        0.0001
     28 C          16.1625   42.1522    8.1293 C.ar    1  UNL1        0.0045
     29 C          10.2312   39.4090    3.7495 C.3     1  UNL1        0.2525
     30 O           9.7970   40.3494    4.7226 O.3     1  UNL1       -0.4701
     31 C          13.0562   39.8122   10.3448 C.3     1  UNL1        0.2525
     32 O          11.8116   40.3847    9.9666 O.3     1  UNL1       -0.4701
@<TRIPOS>BOND
     1    17    18    1
     2    11    18    1
     3    12    13   ar
     4    14    15   ar
     5    14     7    1
     6    16    11   ar
     7     7     9   am
     8     2    30    1
     9     2     3   ar
    10    29    30    1
    11     4    21    1
    12     4     5   ar
    13    19    23    1
    14    24    25   ar
    15    26    27   ar
    16    28    23   ar
    17     5    32    1
    18    31    32    1
    19     6     1   ar
    20     9     1    1
    21    21    19   am
    22    11    12   ar
    23    13    14   ar
    24    15    16   ar
    25     7     8    2
    26     1     2   ar
    27     3     4   ar
    28    19    20    2
    29    23    24   ar
    30    25    26   ar
    31    27    28   ar
    32     5     6   ar
    33     9    10    1
    34    21    22    1
@<TRIPOS>MOLECULE
MolPort-001-550-176 1150979 CSC028001457 CSSS00028001457 MCULE-9900168954 PubChem-1321321 Z29703923 ZINC000001150979 ZINC01150979
 32 34 0 0 0
SMALL
GASTEIGER

@<TRIPOS>ATOM
      1 C           9.2576   40.1655    6.0009 C.ar    1  UNL1        0.0881
      2 C          10.1152   40.3346    4.8954 C.ar    1  UNL1        0.1535
      3 C          11.3778   40.9143    5.0905 C.ar    1  UNL1        0.0559
      4 C          11.8112   41.2947    6.3627 C.ar    1  UNL1        0.0881
      5 C          10.9526   41.1288    7.4676 C.ar    1  UNL1        0.1535
      6 C           9.6901   40.5481    7.2726 C.ar    1  UNL1        0.0559
      7 C           6.7575   40.0033    6.5311 C.2     1  UNL1        0.2496
      8 O           5.6572   39.8338    5.9415 O.2     1  UNL1       -0.2698
      9 N           7.9586   39.5699    5.8768 N.am    1  UNL1       -0.2779
     10 H           7.8839   38.7869    5.2847 H       1  UNL1        0.1553
     11 C           6.8189   41.7124   10.4711 C.ar    1  UNL1        0.1387
     12 C           5.6011   41.5499    9.7926 C.ar    1  UNL1        0.0370
     13 C           5.5782   40.9928    8.5117 C.ar    1  UNL1        0.0076
     14 C           6.7678   40.5834    7.8925 C.ar    1  UNL1        0.0539
     15 C           7.9832   40.7581    8.5697 C.ar    1  UNL1        0.0076
     16 C           8.0074   41.3160    9.8511 C.ar    1  UNL1        0.0370
     17 C           7.9741   42.0543   12.6313 C.3     1  UNL1        0.2525
     18 O           6.8760   42.2640   11.7539 O.3     1  UNL1       -0.4714
     19 C          14.1451   41.4546    7.3722 C.2     1  UNL1        0.2496
     20 O          14.0763   40.3176    7.9143 O.2     1  UNL1       -0.2698
     21 N          13.1075   41.8937    6.4857 N.am    1  UNL1       -0.2779
     22 H          13.3015   42.6713    5.9139 H       1  UNL1        0.1553
     23 C          15.3189   42.3122    7.6111 C.ar    1  UNL1        0.0537
     24 C          15.4456   43.5433    6.9501 C.ar    1  UNL1        0.0045
     25 C          16.5607   44.3556    7.1761 C.ar    1  UNL1        0.0001
     26 C          17.5577   43.9426    8.0640 C.ar    1  UNL1        0.0000
     27 C          17.4397   42.7176    8.7261 C.ar    1  UNL1        0.0001
     28 C          16.3246   41.9053    8.5002 C.ar    1  UNL1        0.0045
     29 C           9.8202   38.5530    3.1982 C.3     1  UNL1        0.2525
     30 O           9.7157   39.9047    3.6247 O.3     1  UNL1       -0.4701
     31 C          11.4366   40.7083    9.8614 C.3     1  UNL1        0.2525
     32 O          11.3459   41.5713    8.7359 O.3     1  UNL1       -0.4701
@<TRIPOS>BOND
     1    17    18    1
     2    11    18    1
     3    12    13   ar
     4    14    15   ar
     5    14     7    1
     6    16    11   ar
     7     7     9   am
     8     2    30    1
     9     2     3   ar
    10    29    30    1
    11     4    21    1
    12     4     5   ar
    13    19    23    1
    14    24    25   ar
    15    26    27   ar
    16    28    23   ar
    17     5    32    1
    18    31    32    1
    19     6     1   ar
    20     9     1    1
    21    21    19   am
    22    11    12   ar
    23    13    14   ar
    24    15    16   ar
    25     7     8    2
    26     1     2   ar
    27     3     4   ar
    28    19    20    2
    29    23    24   ar
    30    25    26   ar
    31    27    28   ar
    32     5     6   ar
    33     9    10    1
    34    21    22    1
@<TRIPOS>MOLECULE
MolPort-001-550-176 1150979 CSC028001457 CSSS00028001457 MCULE-9900168954 PubChem-1321321 Z29703923 ZINC000001150979 ZINC01150979
 32 34 0 0 0
SMALL
GASTEIGER

@<TRIPOS>ATOM
      1 C          13.2336   39.4584    9.2402 C.ar    1  UNL1        0.0881
      2 C          12.5628   39.8488   10.4165 C.ar    1  UNL1        0.1535
      3 C          11.2141   40.2282   10.3420 C.ar    1  UNL1        0.0559
      4 C          10.5179   40.1937    9.1315 C.ar    1  UNL1        0.0881
      5 C          11.1893   39.8066    7.9547 C.ar    1  UNL1        0.1535
      6 C          12.5380   39.4263    8.0294 C.ar    1  UNL1        0.0559
      7 C          15.7542   39.9101    9.2489 C.2     1  UNL1        0.2496
      8 O          16.8012   39.5152    9.8278 O.2     1  UNL1       -0.2698
      9 N          14.6078   39.0474    9.2442 N.am    1  UNL1       -0.2779
     10 H          14.7814   38.0783    9.2437 H       1  UNL1        0.1553
     11 C          15.8154   43.6838    7.1986 C.ar    1  UNL1        0.1387
     12 C          14.6916   42.8483    7.1033 C.ar    1  UNL1        0.0370
     13 C          14.6685   41.6212    7.7705 C.ar    1  UNL1        0.0076
     14 C          15.7620   41.2132    8.5476 C.ar    1  UNL1        0.0539
     15 C          16.8871   42.0461    8.6307 C.ar    1  UNL1        0.0076
     16 C          16.9116   43.2738    7.9630 C.ar    1  UNL1        0.0370
     17 C          14.8851   45.3346    5.6088 C.3     1  UNL1        0.2525
     18 O          15.8693   44.9182    6.5456 O.3     1  UNL1       -0.4714
     19 C           8.5984   41.6771    9.9104 C.2     1  UNL1        0.2496
     20 O           9.3632   42.5165   10.4598 O.2     1  UNL1       -0.2698
     21 N           9.1460   40.6085    9.1271 N.am    1  UNL1       -0.2779
     22 H           8.5284   40.1190    8.5370 H       1  UNL1        0.1553
     23 C           7.1377   41.8246   10.0325 C.ar    1  UNL1        0.0537
     24 C           6.3859   42.3526    8.9720 C.ar    1  UNL1        0.0045
     25 C           5.0000   42.4938    9.0895 C.ar    1  UNL1        0.0001
     26 C           4.3558   42.1089   10.2683 C.ar    1  UNL1        0.0000
     27 C           5.0970   41.5827   11.3297 C.ar    1  UNL1        0.0001
     28 C           6.4829   41.4413   11.2122 C.ar    1  UNL1        0.0045
     29 C          14.0010   38.7231   12.0915 C.3     1  UNL1        0.2525
     30 O          13.2328   39.8324   11.6453 O.3     1  UNL1       -0.4701
     31 C          10.7007   40.8796    5.7750 C.3     1  UNL1        0.2525
     32 O          10.5238   39.8363    6.7238 O.3     1  UNL1       -0.4701
@<TRIPOS>BOND
     1    17    18    1
     2    11    18    1
     3    12    13   ar
     4    14    15   ar
     5    14     7    1
     6    16    11   ar
     7     7     9   am
     8     2    30    1
     9     2     3   ar
    10    29    30    1
    11     4    21    1
    12     4     5   ar
    13    19    23    1
    14    24    25   ar
    15    26    27   ar
    16    28    23   ar
    17     5    32    1
    18    31    32    1
    19     6     1   ar
    20     9     1    1
    21    21    19   am
    22    11    12   ar
    23    13    14   ar
    24    15    16   ar
    25     7     8    2
    26     1     2   ar
    27     3     4   ar
    28    19    20    2
    29    23    24   ar
    30    25    26   ar
    31    27    28   ar
    32     5     6   ar
    33     9    10    1
    34    21    22    1
@<TRIPOS>MOLECULE
MolPort-001-550-176 1150979 CSC028001457 CSSS00028001457 MCULE-9900168954 PubChem-1321321 Z29703923 ZINC000001150979 ZINC01150979
 32 34 0 0 0
SMALL
GASTEIGER

@<TRIPOS>ATOM
      1 C          11.4272   42.1412    8.1282 C.ar    1  UNL1        0.0881
      2 C          11.0071   41.7234    9.4069 C.ar    1  UNL1        0.1535
      3 C           9.6593   41.3910    9.6102 C.ar    1  UNL1        0.0559
      4 C           8.7366   41.4349    8.5625 C.ar    1  UNL1        0.0881
      5 C           9.1557   41.8559    7.2847 C.ar    1  UNL1        0.1535
      6 C          10.5040   42.1875    7.0811 C.ar    1  UNL1        0.0559
      7 C          13.8700   41.5672    7.6173 C.2     1  UNL1        0.2496
      8 O          14.7975   41.9123    6.8376 O.2     1  UNL1       -0.2698
      9 N          12.7910   42.4848    7.8459 N.am    1  UNL1       -0.2779
     10 H          13.0078   43.4442    7.8049 H       1  UNL1        0.1553
     11 C          14.1129   37.7628    9.5962 C.ar    1  UNL1        0.1387
     12 C          15.0491   38.7679    9.8845 C.ar    1  UNL1        0.0370
     13 C          14.9713   40.0067    9.2435 C.ar    1  UNL1        0.0076
     14 C          13.9553   40.2632    8.3119 C.ar    1  UNL1        0.0539
     15 C          13.0290   39.2521    8.0187 C.ar    1  UNL1        0.0076
     16 C          13.1061   38.0121    8.6590 C.ar    1  UNL1        0.0370
     17 C          13.9702   35.2948    9.5168 C.3     1  UNL1        0.2525
     18 O          14.1613   36.5139   10.2216 O.3     1  UNL1       -0.4714
     19 C           6.3763   42.0014    9.3372 C.2     1  UNL1        0.2496
     20 O           6.5724   43.2466    9.2886 O.2     1  UNL1       -0.2698
     21 N           7.3732   41.0957    8.8459 N.am    1  UNL1       -0.2779
     22 H           7.0984   40.1632    8.6903 H       1  UNL1        0.1553
     23 C           5.0994   41.4786    9.8535 C.ar    1  UNL1        0.0537
     24 C           3.9121   41.6607    9.1285 C.ar    1  UNL1        0.0045
     25 C           2.7006   41.1659    9.6201 C.ar    1  UNL1        0.0001
     26 C           2.6672   40.4861   10.8406 C.ar    1  UNL1        0.0000
     27 C           3.8450   40.3007   11.5695 C.ar    1  UNL1        0.0001
     28 C           5.0566   40.7955   11.0778 C.ar    1  UNL1        0.0045
     29 C          11.9919   40.4989   11.3231 C.3     1  UNL1        0.2525
     30 O          11.9333   41.6196   10.4512 O.3     1  UNL1       -0.4701
     31 C           7.4022   43.1174    6.0702 C.3     1  UNL1        0.2525
     32 O           8.2274   41.9734    6.2439 O.3     1  UNL1       -0.4701
@<TRIPOS>BOND
     1    17    18    1
     2    11    18    1
     3    12    13   ar
     4    14    15   ar
     5    14     7    1
     6    16    11   ar
     7     7     9   am
     8     2    30    1
     9     2     3   ar
    10    29    30    1
    11     4    21    1
    12     4     5   ar
    13    19    23    1
    14    24    25   ar
    15    26    27   ar
    16    28    23   ar
    17     5    32    1
    18    31    32    1
    19     6     1   ar
    20     9     1    1
    21    21    19   am
    22    11    12   ar
    23    13    14   ar
    24    15    16   ar
    25     7     8    2
    26     1     2   ar
    27     3     4   ar
    28    19    20    2
    29    23    24   ar
    30    25    26   ar
    31    27    28   ar
    32     5     6   ar
    33     9    10    1
    34    21    22    1
