@<TRIPOS>MOLECULE
MolPort-008-194-460 40745731 CSSS03437773488 MCULE-4252058049 PubChem-51998987 ZINC000040745731 ZINC40745731
 24 25 0 0 0
SMALL
GASTEIGER

@<TRIPOS>ATOM
      1 C          10.2186   41.2803    8.2635 C.ar    1  UNL1        0.1568
      2 C          12.7444   40.1705   10.4871 C.3     1  UNL1        0.1552
      3 C          12.3696   41.4300    8.3446 C.ar    1  UNL1        0.1331
      4 C          11.3015   41.7453    7.5278 C.ar    1  UNL1        0.0596
      5 N          10.6223   40.7045    9.4142 N.ar    1  UNL1       -0.1635
      6 N          11.9378   40.8011    9.4561 N.ar    1  UNL1       -0.2354
      7 C           8.8142   41.3659    7.8481 C.2     1  UNL1        0.2654
      8 O           8.5286   41.7612    6.6855 O.2     1  UNL1       -0.2684
      9 N           7.7759   40.9965    8.7605 N.am    1  UNL1       -0.2995
     10 H           8.0298   40.6581    9.6495 H       1  UNL1        0.1498
     11 C           6.3594   41.0986    8.4334 C.3     1  UNL1        0.0923
     12 C           5.5222   41.2324    9.6959 C.3     1  UNL1        0.0533
     13 C           4.0456   41.2460    9.3492 C.3     1  UNL1        0.1440
     14 C           4.2679   40.4090   11.3766 C.3     1  UNL1        0.1741
     15 O           3.3080   40.7833   10.4375 O.3     1  UNL1       -0.3510
     16 C          14.2100   42.6720    7.1059 C.2     1  UNL1        0.2853
     17 O          13.4095   43.2797    6.3449 O.2     1  UNL1       -0.2664
     18 N          13.7399   41.6478    7.9877 N.am    1  UNL1       -0.2635
     19 H          14.4117   41.0448    8.3805 H       1  UNL1        0.1567
     20 C          15.6438   42.9740    7.0506 C.ar    1  UNL1        0.1988
     21 C          16.5877   42.5554    7.9649 C.ar    1  UNL1        0.0455
     22 C          17.7832   43.0769    7.5020 C.ar    1  UNL1        0.0440
     23 C          17.4886   43.7745    6.3429 C.ar    1  UNL1        0.1798
     24 O          16.2016   43.6891    6.1073 O.2     1  UNL1       -0.4458
@<TRIPOS>BOND
     1    14    15    1
     2    13    15    1
     3    13    12    1
     4    12    11    1
     5    11     9    1
     6     7     1    1
     7     2     6    1
     8     3    18    1
     9    16    20    1
    10    20    24   ar
    11    21    22   ar
    12    23    24   ar
    13     4     1   ar
    14     9     7   am
    15     6     5   ar
    16     6     3   ar
    17    18    16   am
    18     7     8    2
    19     1     5   ar
    20     3     4   ar
    21    16    17    2
    22    20    21   ar
    23    22    23   ar
    24     9    10    1
    25    18    19    1
@<TRIPOS>MOLECULE
MolPort-008-194-460 40745731 CSSS03437773488 MCULE-4252058049 PubChem-51998987 ZINC000040745731 ZINC40745731
 24 25 0 0 0
SMALL
GASTEIGER

@<TRIPOS>ATOM
      1 C           8.1408   40.6675    6.1447 C.ar    1  UNL1        0.1568
      2 C          10.7321   39.9788    3.8281 C.3     1  UNL1        0.1552
      3 C          10.0911   41.4920    5.7298 C.ar    1  UNL1        0.1331
      4 C           8.9852   41.7012    6.5303 C.ar    1  UNL1        0.0596
      5 N           8.6960   39.9238    5.1664 N.ar    1  UNL1       -0.1635
      6 N           9.8878   40.4339    4.9196 N.ar    1  UNL1       -0.2354
      7 C           6.8038   40.4177    6.6944 C.2     1  UNL1        0.2654
      8 O           6.0358   39.5970    6.1232 O.2     1  UNL1       -0.2684
      9 N           6.3788   41.1014    7.8772 N.am    1  UNL1       -0.2995
     10 H           7.0123   41.7100    8.3217 H       1  UNL1        0.1498
     11 C           5.0503   40.9377    8.4538 C.3     1  UNL1        0.0923
     12 C           4.8309   41.9221    9.5919 C.3     1  UNL1        0.0533
     13 C           3.5559   42.7121    9.3661 C.3     1  UNL1        0.1440
     14 C           3.4151   42.0027   11.4487 C.3     1  UNL1        0.1741
     15 O           2.6346   42.4041   10.3656 O.3     1  UNL1       -0.3510
     16 C          12.3182   42.3212    6.6338 C.2     1  UNL1        0.2853
     17 O          12.2027   41.7077    7.7289 O.2     1  UNL1       -0.2664
     18 N          11.2326   42.3574    5.7023 N.am    1  UNL1       -0.2635
     19 H          11.2733   43.0307    4.9852 H       1  UNL1        0.1567
     20 C          13.5526   43.0523    6.3315 C.ar    1  UNL1        0.1988
     21 C          14.8154   42.7094    6.7675 C.ar    1  UNL1        0.0455
     22 C          15.6477   43.6796    6.2367 C.ar    1  UNL1        0.0440
     23 C          14.8401   44.5436    5.5169 C.ar    1  UNL1        0.1798
     24 O          13.5969   44.1350    5.5979 O.2     1  UNL1       -0.4458
@<TRIPOS>BOND
     1    14    15    1
     2    13    15    1
     3    13    12    1
     4    12    11    1
     5    11     9    1
     6     7     1    1
     7     2     6    1
     8     3    18    1
     9    16    20    1
    10    20    24   ar
    11    21    22   ar
    12    23    24   ar
    13     4     1   ar
    14     9     7   am
    15     6     5   ar
    16     6     3   ar
    17    18    16   am
    18     7     8    2
    19     1     5   ar
    20     3     4   ar
    21    16    17    2
    22    20    21   ar
    23    22    23   ar
    24     9    10    1
    25    18    19    1
@<TRIPOS>MOLECULE
MolPort-008-194-460 40745731 CSSS03437773488 MCULE-4252058049 PubChem-51998987 ZINC000040745731 ZINC40745731
 24 25 0 0 0
SMALL
GASTEIGER

@<TRIPOS>ATOM
      1 C          10.8525   39.5091    8.0752 C.ar    1  UNL1        0.1568
      2 C          13.1248   39.9853   10.7521 C.3     1  UNL1        0.1552
      3 C          12.7948   40.4217    8.2990 C.ar    1  UNL1        0.1331
      4 C          11.8579   40.1145    7.3318 C.ar    1  UNL1        0.0596
      5 N          11.1871   39.4364    9.3796 N.ar    1  UNL1       -0.1635
      6 N          12.3749   39.9970    9.5075 N.ar    1  UNL1       -0.2354
      7 C           9.5967   38.9827    7.5291 C.2     1  UNL1        0.2654
      8 O           9.2537   37.7959    7.7811 O.2     1  UNL1       -0.2684
      9 N           8.7651   39.8180    6.7181 N.am    1  UNL1       -0.2995
     10 H           9.0407   40.7510    6.5671 H       1  UNL1        0.1498
     11 C           7.5283   39.3500    6.1054 C.3     1  UNL1        0.0923
     12 C           6.3608   40.2423    6.4969 C.3     1  UNL1        0.0533
     13 C           6.6780   40.9931    7.7761 C.3     1  UNL1        0.1440
     14 C           5.6934   42.1919    9.3426 C.3     1  UNL1        0.1741
     15 O           5.5451   41.0297    8.5871 O.3     1  UNL1       -0.3510
     16 C          14.2937   42.1341    7.1654 C.2     1  UNL1        0.2853
     17 O          13.3989   42.5184    6.3649 O.2     1  UNL1       -0.2664
     18 N          14.0723   41.0056    8.0168 N.am    1  UNL1       -0.2635
     19 H          14.8608   40.5980    8.4427 H       1  UNL1        0.1567
     20 C          15.5943   42.8107    7.1882 C.ar    1  UNL1        0.1988
     21 C          16.6402   42.5103    8.0355 C.ar    1  UNL1        0.0455
     22 C          17.6419   43.4006    7.6894 C.ar    1  UNL1        0.0440
     23 C          17.1413   44.1792    6.6598 C.ar    1  UNL1        0.1798
     24 O          15.9168   43.7961    6.3898 O.2     1  UNL1       -0.4458
@<TRIPOS>BOND
     1    14    15    1
     2    13    15    1
     3    13    12    1
     4    12    11    1
     5    11     9    1
     6     7     1    1
     7     2     6    1
     8     3    18    1
     9    16    20    1
    10    20    24   ar
    11    21    22   ar
    12    23    24   ar
    13     4     1   ar
    14     9     7   am
    15     6     5   ar
    16     6     3   ar
    17    18    16   am
    18     7     8    2
    19     1     5   ar
    20     3     4   ar
    21    16    17    2
    22    20    21   ar
    23    22    23   ar
    24     9    10    1
    25    18    19    1
@<TRIPOS>MOLECULE
MolPort-008-194-460 40745731 CSSS03437773488 MCULE-4252058049 PubChem-51998987 ZINC000040745731 ZINC40745731
 24 25 0 0 0
SMALL
GASTEIGER

@<TRIPOS>ATOM
      1 C           9.8776   41.6535    8.7166 C.ar    1  UNL1        0.1568
      2 C          11.2630   40.6143    5.6252 C.3     1  UNL1        0.1552
      3 C          11.8652   41.5336    7.8856 C.ar    1  UNL1        0.1331
      4 C          11.1975   41.9694    9.0133 C.ar    1  UNL1        0.0596
      5 N           9.7723   41.1017    7.4906 N.ar    1  UNL1       -0.1635
      6 N          10.9914   41.0313    6.9904 N.ar    1  UNL1       -0.2354
      7 C           8.7293   41.9066    9.5939 C.2     1  UNL1        0.2654
      8 O           8.8544   42.6817   10.5803 O.2     1  UNL1       -0.2684
      9 N           7.4727   41.2776    9.3246 N.am    1  UNL1       -0.2995
     10 H           7.3949   40.7051    8.5275 H       1  UNL1        0.1498
     11 C           6.3027   41.4463   10.1771 C.3     1  UNL1        0.0923
     12 C           5.0370   41.5551    9.3412 C.3     1  UNL1        0.0533
     13 C           3.9827   42.3534   10.0841 C.3     1  UNL1        0.1440
     14 C           3.8907   43.9997    8.6207 C.3     1  UNL1        0.1741
     15 O           3.1310   42.9662    9.1666 O.3     1  UNL1       -0.3510
     16 C          13.8758   42.8205    7.0104 C.2     1  UNL1        0.2853
     17 O          13.1810   43.5982    6.3021 O.2     1  UNL1       -0.2664
     18 N          13.2717   41.7056    7.6734 N.am    1  UNL1       -0.2635
     19 H          13.8702   41.0005    8.0107 H       1  UNL1        0.1567
     20 C          15.3243   43.0227    7.1136 C.ar    1  UNL1        0.1988
     21 C          16.1766   42.3155    7.9355 C.ar    1  UNL1        0.0455
     22 C          17.4289   42.8516    7.6907 C.ar    1  UNL1        0.0440
     23 C          17.2560   43.8441    6.7410 C.ar    1  UNL1        0.1798
     24 O          15.9862   43.9151    6.4223 O.2     1  UNL1       -0.4458
@<TRIPOS>BOND
     1    14    15    1
     2    13    15    1
     3    13    12    1
     4    12    11    1
     5    11     9    1
     6     7     1    1
     7     2     6    1
     8     3    18    1
     9    16    20    1
    10    20    24   ar
    11    21    22   ar
    12    23    24   ar
    13     4     1   ar
    14     9     7   am
    15     6     5   ar
    16     6     3   ar
    17    18    16   am
    18     7     8    2
    19     1     5   ar
    20     3     4   ar
    21    16    17    2
    22    20    21   ar
    23    22    23   ar
    24     9    10    1
    25    18    19    1
@<TRIPOS>MOLECULE
MolPort-008-194-460 40745731 CSSS03437773488 MCULE-4252058049 PubChem-51998987 ZINC000040745731 ZINC40745731
 24 25 0 0 0
SMALL
GASTEIGER

@<TRIPOS>ATOM
      1 C          10.2609   41.1613    6.6379 C.ar    1  UNL1        0.1568
      2 C          12.5681   39.0762    8.3364 C.3     1  UNL1        0.1552
      3 C          12.3821   41.2148    7.0292 C.ar    1  UNL1        0.1331
      4 C          11.3989   41.9023    6.3449 C.ar    1  UNL1        0.0596
      5 N          10.5578   40.0974    7.4115 N.ar    1  UNL1       -0.1635
      6 N          11.8557   40.1383    7.6465 N.ar    1  UNL1       -0.2354
      7 C           8.9086   41.4609    6.1544 C.2     1  UNL1        0.2654
      8 O           8.3545   40.6878    5.3269 O.2     1  UNL1       -0.2684
      9 N           8.2229   42.6245    6.6266 N.am    1  UNL1       -0.2995
     10 H           8.6661   43.1908    7.2990 H       1  UNL1        0.1498
     11 C           6.8980   43.0093    6.1571 C.3     1  UNL1        0.0923
     12 C           6.3087   44.0995    7.0385 C.3     1  UNL1        0.0533
     13 C           5.9514   43.5385    8.4017 C.3     1  UNL1        0.1440
     14 C           3.8777   43.2489    9.0918 C.3     1  UNL1        0.1741
     15 O           4.8544   44.2279    8.9156 O.3     1  UNL1       -0.3510
     16 C          14.2987   42.8821    6.9225 C.2     1  UNL1        0.2853
     17 O          13.5550   43.8516    6.6127 O.2     1  UNL1       -0.2664
     18 N          13.7737   41.5523    6.9812 N.am    1  UNL1       -0.2635
     19 H          14.4203   40.8099    6.9892 H       1  UNL1        0.1567
     20 C          15.7264   43.1055    7.1709 C.ar    1  UNL1        0.1988
     21 C          16.4602   44.1827    6.7199 C.ar    1  UNL1        0.0455
     22 C          17.7407   43.9620    7.1968 C.ar    1  UNL1        0.0440
     23 C          17.7008   42.7715    7.9025 C.ar    1  UNL1        0.1798
     24 O          16.4813   42.2916    7.8637 O.2     1  UNL1       -0.4458
@<TRIPOS>BOND
     1    14    15    1
     2    13    15    1
     3    13    12    1
     4    12    11    1
     5    11     9    1
     6     7     1    1
     7     2     6    1
     8     3    18    1
     9    16    20    1
    10    20    24   ar
    11    21    22   ar
    12    23    24   ar
    13     4     1   ar
    14     9     7   am
    15     6     5   ar
    16     6     3   ar
    17    18    16   am
    18     7     8    2
    19     1     5   ar
    20     3     4   ar
    21    16    17    2
    22    20    21   ar
    23    22    23   ar
    24     9    10    1
    25    18    19    1
@<TRIPOS>MOLECULE
MolPort-008-194-460 40745731 CSSS03437773488 MCULE-4252058049 PubChem-51998987 ZINC000040745731 ZINC40745731
 24 25 0 0 0
SMALL
GASTEIGER

@<TRIPOS>ATOM
      1 C          11.2674   40.2543   10.3188 C.ar    1  UNL1        0.1568
      2 C          12.3672   36.9383    9.7266 C.3     1  UNL1        0.1552
      3 C          13.1831   39.2695   10.1924 C.ar    1  UNL1        0.1331
      4 C          12.6297   40.5259   10.3436 C.ar    1  UNL1        0.0596
      5 N          11.0360   38.9387   10.1342 N.ar    1  UNL1       -0.1635
      6 N          12.2118   38.3443   10.0589 N.ar    1  UNL1       -0.2354
      7 C          10.2027   41.2558   10.4439 C.2     1  UNL1        0.2654
      8 O          10.2924   42.3460    9.8170 O.2     1  UNL1       -0.2684
      9 N           9.0662   40.9902   11.2715 N.am    1  UNL1       -0.2995
     10 H           9.0061   40.1164   11.7211 H       1  UNL1        0.1498
     11 C           7.9935   41.9547   11.4790 C.3     1  UNL1        0.0923
     12 C           6.6367   41.2690   11.4423 C.3     1  UNL1        0.0533
     13 C           6.0084   41.4184   10.0698 C.3     1  UNL1        0.1440
     14 C           4.2503   41.0020   11.3331 C.3     1  UNL1        0.1741
     15 O           4.7658   40.7871   10.0558 O.3     1  UNL1       -0.3510
     16 C          15.4401   38.5982   11.1514 C.2     1  UNL1        0.2853
     17 O          15.0576   38.6893   12.3491 O.2     1  UNL1       -0.2664
     18 N          14.5904   39.0245   10.0819 N.am    1  UNL1       -0.2635
     19 H          15.0059   39.1602    9.1998 H       1  UNL1        0.1567
     20 C          16.7873   38.1046   10.8492 C.ar    1  UNL1        0.1988
     21 C          17.9194   38.8834   10.7312 C.ar    1  UNL1        0.0455
     22 C          18.9355   37.9883   10.4447 C.ar    1  UNL1        0.0440
     23 C          18.3569   36.7311   10.4078 C.ar    1  UNL1        0.1798
     24 O          17.0740   36.8428   10.6543 O.2     1  UNL1       -0.4458
@<TRIPOS>BOND
     1    14    15    1
     2    13    15    1
     3    13    12    1
     4    12    11    1
     5    11     9    1
     6     7     1    1
     7     2     6    1
     8     3    18    1
     9    16    20    1
    10    20    24   ar
    11    21    22   ar
    12    23    24   ar
    13     4     1   ar
    14     9     7   am
    15     6     5   ar
    16     6     3   ar
    17    18    16   am
    18     7     8    2
    19     1     5   ar
    20     3     4   ar
    21    16    17    2
    22    20    21   ar
    23    22    23   ar
    24     9    10    1
    25    18    19    1
@<TRIPOS>MOLECULE
MolPort-008-194-460 40745731 CSSS03437773488 MCULE-4252058049 PubChem-51998987 ZINC000040745731 ZINC40745731
 24 25 0 0 0
SMALL
GASTEIGER

@<TRIPOS>ATOM
      1 C          10.6897   41.3317    9.3138 C.ar    1  UNL1        0.1568
      2 C          13.7319   39.9575   10.5024 C.3     1  UNL1        0.1552
      3 C          12.7684   41.4880    8.7570 C.ar    1  UNL1        0.1331
      4 C          11.5143   41.9001    8.3510 C.ar    1  UNL1        0.0596
      5 N          11.4032   40.6113   10.2029 N.ar    1  UNL1       -0.1635
      6 N          12.6723   40.7129    9.8557 N.ar    1  UNL1       -0.2354
      7 C           9.2289   41.4596    9.3590 C.2     1  UNL1        0.2654
      8 O           8.6259   41.3587   10.4616 O.2     1  UNL1       -0.2684
      9 N           8.4958   41.7027    8.1546 N.am    1  UNL1       -0.2995
     10 H           8.9961   41.8119    7.3137 H       1  UNL1        0.1498
     11 C           7.0419   41.7959    8.1164 C.3     1  UNL1        0.0923
     12 C           6.5690   43.1068    8.7252 C.3     1  UNL1        0.0533
     13 C           5.8689   43.9513    7.6776 C.3     1  UNL1        0.1440
     14 C           3.8703   44.8724    7.8104 C.3     1  UNL1        0.1741
     15 O           5.1700   44.9826    8.3025 O.3     1  UNL1       -0.3510
     16 C          14.2229   42.9453    7.2653 C.2     1  UNL1        0.2853
     17 O          13.2742   43.7062    6.9334 O.2     1  UNL1       -0.2664
     18 N          13.9733   41.7634    8.0323 N.am    1  UNL1       -0.2635
     19 H          14.6864   41.0854    8.0647 H       1  UNL1        0.1567
     20 C          15.5876   43.2393    6.8168 C.ar    1  UNL1        0.1988
     21 C          15.9258   43.8831    5.6450 C.ar    1  UNL1        0.0455
     22 C          17.3090   43.9317    5.6554 C.ar    1  UNL1        0.0440
     23 C          17.7180   43.3175    6.8268 C.ar    1  UNL1        0.1798
     24 O          16.6613   42.9180    7.4923 O.2     1  UNL1       -0.4458
@<TRIPOS>BOND
     1    14    15    1
     2    13    15    1
     3    13    12    1
     4    12    11    1
     5    11     9    1
     6     7     1    1
     7     2     6    1
     8     3    18    1
     9    16    20    1
    10    20    24   ar
    11    21    22   ar
    12    23    24   ar
    13     4     1   ar
    14     9     7   am
    15     6     5   ar
    16     6     3   ar
    17    18    16   am
    18     7     8    2
    19     1     5   ar
    20     3     4   ar
    21    16    17    2
    22    20    21   ar
    23    22    23   ar
    24     9    10    1
    25    18    19    1
@<TRIPOS>MOLECULE
MolPort-008-194-460 40745731 CSSS03437773488 MCULE-4252058049 PubChem-51998987 ZINC000040745731 ZINC40745731
 24 25 0 0 0
SMALL
GASTEIGER

@<TRIPOS>ATOM
      1 C          10.9675   41.2844    8.8524 C.ar    1  UNL1        0.1568
      2 C           9.0652   41.3582   11.8411 C.3     1  UNL1        0.1552
      3 C           8.9296   41.7734    9.3659 C.ar    1  UNL1        0.1331
      4 C           9.7936   41.7682    8.2884 C.ar    1  UNL1        0.0596
      5 N          10.8146   41.0523   10.1720 N.ar    1  UNL1       -0.1635
      6 N           9.5664   41.3529   10.4772 N.ar    1  UNL1       -0.2354
      7 C          12.2284   41.0750    8.1324 C.2     1  UNL1        0.2654
      8 O          12.5087   39.9317    7.6810 O.2     1  UNL1       -0.2684
      9 N          13.1316   42.1681    7.9413 N.am    1  UNL1       -0.2995
     10 H          12.8704   43.0572    8.2739 H       1  UNL1        0.1498
     11 C          14.4206   42.0248    7.2766 C.3     1  UNL1        0.0923
     12 C          15.4601   41.4586    8.2313 C.3     1  UNL1        0.0533
     13 C          16.6953   42.3389    8.2468 C.3     1  UNL1        0.1440
     14 C          17.6173   44.0966    7.2873 C.3     1  UNL1        0.1741
     15 O          16.8225   42.9836    7.0176 O.3     1  UNL1       -0.3510
     16 C           7.2147   43.6179    9.0172 C.2     1  UNL1        0.2853
     17 O           8.0684   44.5437    9.0739 O.2     1  UNL1       -0.2664
     18 N           7.5859   42.2673    9.3101 N.am    1  UNL1       -0.2635
     19 H           6.8599   41.6263    9.4873 H       1  UNL1        0.1567
     20 C           5.8167   43.9300    8.7042 C.ar    1  UNL1        0.1988
     21 C           4.7180   43.2264    9.1515 C.ar    1  UNL1        0.0455
     22 C           3.6304   43.8854    8.6050 C.ar    1  UNL1        0.0440
     23 C           4.1373   44.9404    7.8655 C.ar    1  UNL1        0.1798
     24 O           5.4457   44.9329    7.9500 O.2     1  UNL1       -0.4458
@<TRIPOS>BOND
     1    14    15    1
     2    13    15    1
     3    13    12    1
     4    12    11    1
     5    11     9    1
     6     7     1    1
     7     2     6    1
     8     3    18    1
     9    16    20    1
    10    20    24   ar
    11    21    22   ar
    12    23    24   ar
    13     4     1   ar
    14     9     7   am
    15     6     5   ar
    16     6     3   ar
    17    18    16   am
    18     7     8    2
    19     1     5   ar
    20     3     4   ar
    21    16    17    2
    22    20    21   ar
    23    22    23   ar
    24     9    10    1
    25    18    19    1
@<TRIPOS>MOLECULE
MolPort-008-194-460 40745731 CSSS03437773488 MCULE-4252058049 PubChem-51998987 ZINC000040745731 ZINC40745731
 24 25 0 0 0
SMALL
GASTEIGER

@<TRIPOS>ATOM
      1 C           8.0831   40.6863    6.1972 C.ar    1  UNL1        0.1568
      2 C          10.6661   39.9648    3.8813 C.3     1  UNL1        0.1552
      3 C          10.0481   41.4790    5.7898 C.ar    1  UNL1        0.1331
      4 C           8.9446   41.7031    6.5895 C.ar    1  UNL1        0.0596
      5 N           8.6270   39.9382    5.2159 N.ar    1  UNL1       -0.1635
      6 N           9.8279   40.4289    4.9738 N.ar    1  UNL1       -0.2354
      7 C           6.7410   40.4568    6.7433 C.2     1  UNL1        0.2654
      8 O           5.9522   39.6690    6.1545 O.2     1  UNL1       -0.2684
      9 N           6.3345   41.1231    7.9425 N.am    1  UNL1       -0.2995
     10 H           6.9835   41.7052    8.3999 H       1  UNL1        0.1498
     11 C           5.0031   40.9788    8.5175 C.3     1  UNL1        0.0923
     12 C           5.0529   41.1044   10.0322 C.3     1  UNL1        0.0533
     13 C           6.4119   41.6135   10.4737 C.3     1  UNL1        0.1440
     14 C           7.9468   41.5554   12.0551 C.3     1  UNL1        0.1741
     15 O           6.5845   41.3595   11.8332 O.3     1  UNL1       -0.3510
     16 C          12.2566   42.3081    6.7384 C.2     1  UNL1        0.2853
     17 O          12.0930   41.7402    7.8519 O.2     1  UNL1       -0.2664
     18 N          11.2045   42.3246    5.7687 N.am    1  UNL1       -0.2635
     19 H          11.2813   42.9685    5.0279 H       1  UNL1        0.1567
     20 C          13.5130   43.0073    6.4515 C.ar    1  UNL1        0.1988
     21 C          14.7641   42.6183    6.8822 C.ar    1  UNL1        0.0455
     22 C          15.6261   43.5728    6.3709 C.ar    1  UNL1        0.0440
     23 C          14.8461   44.4743    5.6667 C.ar    1  UNL1        0.1798
     24 O          13.5910   44.1019    5.7386 O.2     1  UNL1       -0.4458
@<TRIPOS>BOND
     1    14    15    1
     2    13    15    1
     3    13    12    1
     4    12    11    1
     5    11     9    1
     6     7     1    1
     7     2     6    1
     8     3    18    1
     9    16    20    1
    10    20    24   ar
    11    21    22   ar
    12    23    24   ar
    13     4     1   ar
    14     9     7   am
    15     6     5   ar
    16     6     3   ar
    17    18    16   am
    18     7     8    2
    19     1     5   ar
    20     3     4   ar
    21    16    17    2
    22    20    21   ar
    23    22    23   ar
    24     9    10    1
    25    18    19    1
@<TRIPOS>MOLECULE
MolPort-008-194-460 40745731 CSSS03437773488 MCULE-4252058049 PubChem-51998987 ZINC000040745731 ZINC40745731
 24 25 0 0 0
SMALL
GASTEIGER

@<TRIPOS>ATOM
      1 C           9.6653   42.4086    8.6171 C.ar    1  UNL1        0.1568
      2 C          11.5801   40.0631    6.7764 C.3     1  UNL1        0.1552
      3 C          11.5746   41.4385    8.8801 C.ar    1  UNL1        0.1331
      4 C          10.7660   42.3936    9.4646 C.ar    1  UNL1        0.0596
      5 N           9.8282   41.5486    7.5912 N.ar    1  UNL1       -0.1635
      6 N          10.9970   40.9596    7.7602 N.ar    1  UNL1       -0.2354
      7 C           8.4834   43.2623    8.7804 C.2     1  UNL1        0.2654
      8 O           8.5445   44.2801    9.5218 O.2     1  UNL1       -0.2684
      9 N           7.2695   42.9398    8.0951 N.am    1  UNL1       -0.2995
     10 H           7.2614   42.1591    7.4954 H       1  UNL1        0.1498
     11 C           6.0445   43.7150    8.2448 C.3     1  UNL1        0.0923
     12 C           5.0832   43.0260    9.2007 C.3     1  UNL1        0.0533
     13 C           3.6670   43.5166    8.9675 C.3     1  UNL1        0.1440
     14 C           3.5674   41.3684    9.4528 C.3     1  UNL1        0.1741
     15 O           2.7666   42.4920    9.2539 O.3     1  UNL1       -0.3510
     16 C          13.1764   40.1297   10.3584 C.2     1  UNL1        0.2853
     17 O          12.2653   39.6987   11.1156 O.2     1  UNL1       -0.2664
     18 N          12.8854   41.1042    9.3519 N.am    1  UNL1       -0.2635
     19 H          13.6467   41.5832    8.9517 H       1  UNL1        0.1567
     20 C          14.5577   39.6739   10.5432 C.ar    1  UNL1        0.1988
     21 C          15.5986   39.8913    9.6649 C.ar    1  UNL1        0.0455
     22 C          16.6929   39.2854   10.2574 C.ar    1  UNL1        0.0440
     23 C          16.2472   38.7425   11.4505 C.ar    1  UNL1        0.1798
     24 O          14.9678   38.9959   11.5846 O.2     1  UNL1       -0.4458
@<TRIPOS>BOND
     1    14    15    1
     2    13    15    1
     3    13    12    1
     4    12    11    1
     5    11     9    1
     6     7     1    1
     7     2     6    1
     8     3    18    1
     9    16    20    1
    10    20    24   ar
    11    21    22   ar
    12    23    24   ar
    13     4     1   ar
    14     9     7   am
    15     6     5   ar
    16     6     3   ar
    17    18    16   am
    18     7     8    2
    19     1     5   ar
    20     3     4   ar
    21    16    17    2
    22    20    21   ar
    23    22    23   ar
    24     9    10    1
    25    18    19    1
