@<TRIPOS>MOLECULE
Molport-005-262-082 PubChem-43131503
 18 18 0 0 0
SMALL
GASTEIGER

@<TRIPOS>ATOM
      1 C          14.4691   42.2873    7.2322 C.ar    1  UNL1        0.1404
      2 C          13.7304   42.5067    6.0588 C.ar    1  UNL1        0.0370
      3 C          12.3659   42.2110    6.0217 C.ar    1  UNL1        0.0044
      4 C          11.7328   41.6952    7.1551 C.ar    1  UNL1        0.0149
      5 C          12.4600   41.4714    8.3338 C.ar    1  UNL1        0.0533
      6 C          13.8266   41.7704    8.3621 C.ar    1  UNL1        0.0516
      7 C          10.9982   41.6506   10.4318 C.2     1  UNL1        0.2266
      8 C          10.4470   40.9366   11.6124 C.3     1  UNL1        0.0949
      9 O          10.7122   42.8641   10.2553 O.2     1  UNL1       -0.2748
     10 N          11.8452   40.9433    9.5170 N.am    1  UNL1       -0.2838
     11 H          12.0233   39.9971    9.7222 H       1  UNL1        0.1549
     12 O          15.8359   42.5719    7.3018 O.3     1  UNL1       -0.4678
     13 C          17.5959   43.8623    8.3119 C.3     1  UNL1        0.0596
     14 C          16.3388   43.8926    7.4638 C.3     1  UNL1        0.2632
     15 C          16.6211   44.4989    6.1302 C.2     1  UNL1        0.3544
     16 O          17.4594   43.9717    5.3516 O.2     1  UNL1       -0.2463
     17 O          15.9472   45.6485    5.7420 O.3     1  UNL1       -0.4777
     18 H          15.3230   46.0431    6.3188 H       1  UNL1        0.2952
@<TRIPOS>BOND
     1    14    13    1
     2    14    15    1
     3    14    12    1
     4    15    17    1
     5     1    12    1
     6     2     3   ar
     7     4     5   ar
     8     5    10    1
     9     6     1   ar
    10     8     7    1
    11    10     7   am
    12    15    16    2
    13     1     2   ar
    14     3     4   ar
    15     5     6   ar
    16     7     9    2
    17    17    18    1
    18    10    11    1
@<TRIPOS>MOLECULE
Molport-005-262-082 PubChem-43131503
 18 18 0 0 0
SMALL
GASTEIGER

@<TRIPOS>ATOM
      1 C          14.0367   41.8324    7.7175 C.ar    1  UNL1        0.1404
      2 C          14.6135   40.9176    8.6125 C.ar    1  UNL1        0.0370
      3 C          13.8427   40.3455    9.6270 C.ar    1  UNL1        0.0044
      4 C          12.4932   40.6839    9.7528 C.ar    1  UNL1        0.0149
      5 C          11.9050   41.5969    8.8647 C.ar    1  UNL1        0.0533
      6 C          12.6847   42.1652    7.8514 C.ar    1  UNL1        0.0516
      7 C           9.9885   43.1089    9.6467 C.2     1  UNL1        0.2266
      8 C           8.5204   43.3370    9.6417 C.3     1  UNL1        0.0949
      9 O          10.7373   43.9204   10.2519 O.2     1  UNL1       -0.2748
     10 N          10.5233   41.9688    8.9622 N.am    1  UNL1       -0.2838
     11 H           9.8750   41.3800    8.5123 H       1  UNL1        0.1549
     12 O          14.7807   42.4231    6.6921 O.3     1  UNL1       -0.4678
     13 C          16.9455   43.3846    7.1072 C.3     1  UNL1        0.0596
     14 C          15.4741   43.6542    6.8564 C.3     1  UNL1        0.2632
     15 C          15.2968   44.5060    5.6446 C.2     1  UNL1        0.3544
     16 O          14.7961   44.0269    4.5926 O.2     1  UNL1       -0.2463
     17 O          15.6791   45.8399    5.6809 O.3     1  UNL1       -0.4777
     18 H          16.0518   46.1993    6.4619 H       1  UNL1        0.2952
@<TRIPOS>BOND
     1    14    13    1
     2    14    15    1
     3    14    12    1
     4    15    17    1
     5     1    12    1
     6     2     3   ar
     7     4     5   ar
     8     5    10    1
     9     6     1   ar
    10     8     7    1
    11    10     7   am
    12    15    16    2
    13     1     2   ar
    14     3     4   ar
    15     5     6   ar
    16     7     9    2
    17    17    18    1
    18    10    11    1
@<TRIPOS>MOLECULE
Molport-005-262-082 PubChem-43131503
 18 18 0 0 0
SMALL
GASTEIGER

@<TRIPOS>ATOM
      1 C          14.4360   41.7544    7.7578 C.ar    1  UNL1        0.1404
      2 C          13.0408   41.8016    7.9055 C.ar    1  UNL1        0.0370
      3 C          12.4171   41.0797    8.9256 C.ar    1  UNL1        0.0044
      4 C          13.1830   40.3076    9.8024 C.ar    1  UNL1        0.0149
      5 C          14.5781   40.2521    9.6653 C.ar    1  UNL1        0.0533
      6 C          15.1945   40.9784    8.6405 C.ar    1  UNL1        0.0516
      7 C          16.0656   38.2426   10.2308 C.2     1  UNL1        0.2266
      8 C          16.8774   37.5679   11.2762 C.3     1  UNL1        0.0949
      9 O          15.9783   37.7240    9.0866 O.2     1  UNL1       -0.2748
     10 N          15.3975   39.4709   10.5458 N.am    1  UNL1       -0.2838
     11 H          15.5131   39.8139   11.4613 H       1  UNL1        0.1549
     12 O          15.0904   42.4644    6.7471 O.3     1  UNL1       -0.4678
     13 C          16.9964   43.8827    7.1195 C.3     1  UNL1        0.0596
     14 C          15.4971   43.8190    6.8989 C.3     1  UNL1        0.2632
     15 C          15.1113   44.6066    5.6920 C.2     1  UNL1        0.3544
     16 O          14.8162   44.0242    4.6148 O.2     1  UNL1       -0.2463
     17 O          15.0693   45.9922    5.7609 O.3     1  UNL1       -0.4777
     18 H          15.2882   46.4285    6.5607 H       1  UNL1        0.2952
@<TRIPOS>BOND
     1    14    13    1
     2    14    15    1
     3    14    12    1
     4    15    17    1
     5     1    12    1
     6     2     3   ar
     7     4     5   ar
     8     5    10    1
     9     6     1   ar
    10     8     7    1
    11    10     7   am
    12    15    16    2
    13     1     2   ar
    14     3     4   ar
    15     5     6   ar
    16     7     9    2
    17    17    18    1
    18    10    11    1
@<TRIPOS>MOLECULE
Molport-005-262-082 PubChem-43131503
 18 18 0 0 0
SMALL
GASTEIGER

@<TRIPOS>ATOM
      1 C          11.8432   40.9696    7.7098 C.ar    1  UNL1        0.1404
      2 C          12.2002   39.9233    8.5750 C.ar    1  UNL1        0.0370
      3 C          13.5249   39.7780    8.9932 C.ar    1  UNL1        0.0044
      4 C          14.4988   40.6760    8.5498 C.ar    1  UNL1        0.0149
      5 C          14.1548   41.7258    7.6850 C.ar    1  UNL1        0.0533
      6 C          12.8253   41.8638    7.2711 C.ar    1  UNL1        0.0516
      7 C          14.8708   43.8443    6.4322 C.2     1  UNL1        0.2266
      8 C          16.0091   44.7082    6.0255 C.3     1  UNL1        0.0949
      9 O          13.7017   44.1610    6.0878 O.2     1  UNL1       -0.2748
     10 N          15.1264   42.6671    7.2088 N.am    1  UNL1       -0.2838
     11 H          16.0663   42.4858    7.4391 H       1  UNL1        0.1549
     12 O          10.5269   41.1421    7.2723 O.3     1  UNL1       -0.4678
     13 C          11.1072   39.7187    5.4229 C.3     1  UNL1        0.0596
     14 C           9.9962   40.4586    6.1433 C.3     1  UNL1        0.2632
     15 C           8.9293   39.5097    6.5755 C.2     1  UNL1        0.3544
     16 O           8.1163   39.0357    5.7383 O.2     1  UNL1       -0.2463
     17 O           8.8386   39.1402    7.9104 O.3     1  UNL1       -0.4777
     18 H           9.4419   39.4910    8.5357 H       1  UNL1        0.2952
@<TRIPOS>BOND
     1    14    13    1
     2    14    15    1
     3    14    12    1
     4    15    17    1
     5     1    12    1
     6     2     3   ar
     7     4     5   ar
     8     5    10    1
     9     6     1   ar
    10     8     7    1
    11    10     7   am
    12    15    16    2
    13     1     2   ar
    14     3     4   ar
    15     5     6   ar
    16     7     9    2
    17    17    18    1
    18    10    11    1
@<TRIPOS>MOLECULE
Molport-005-262-082 PubChem-43131503
 18 18 0 0 0
SMALL
GASTEIGER

@<TRIPOS>ATOM
      1 C          12.9028   40.2678    7.9751 C.ar    1  UNL1        0.1404
      2 C          13.3679   39.3821    8.9599 C.ar    1  UNL1        0.0370
      3 C          14.6268   39.5687    9.5352 C.ar    1  UNL1        0.0044
      4 C          15.4269   40.6398    9.1302 C.ar    1  UNL1        0.0149
      5 C          14.9735   41.5320    8.1469 C.ar    1  UNL1        0.0533
      6 C          13.7110   41.3373    7.5760 C.ar    1  UNL1        0.0516
      7 C          17.1970   42.7240    7.6935 C.2     1  UNL1        0.2266
      8 C          17.8505   43.9628    7.1977 C.3     1  UNL1        0.0949
      9 O          17.9109   41.7675    8.0946 O.2     1  UNL1       -0.2748
     10 N          15.7660   42.6428    7.7054 N.am    1  UNL1       -0.2838
     11 H          15.2765   43.4311    7.3765 H       1  UNL1        0.1549
     12 O          11.6483   40.1083    7.3794 O.3     1  UNL1       -0.4678
     13 C          11.0097   39.7812    5.0841 C.3     1  UNL1        0.0596
     14 C          11.2710   40.7880    6.1881 C.3     1  UNL1        0.2632
     15 C          10.0576   41.6195    6.4368 C.2     1  UNL1        0.3544
     16 O           9.2682   41.8980    5.4955 O.2     1  UNL1       -0.2463
     17 O           9.7930   42.0820    7.7185 O.3     1  UNL1       -0.4777
     18 H          10.3782   41.8766    8.4208 H       1  UNL1        0.2952
@<TRIPOS>BOND
     1    14    13    1
     2    14    15    1
     3    14    12    1
     4    15    17    1
     5     1    12    1
     6     2     3   ar
     7     4     5   ar
     8     5    10    1
     9     6     1   ar
    10     8     7    1
    11    10     7   am
    12    15    16    2
    13     1     2   ar
    14     3     4   ar
    15     5     6   ar
    16     7     9    2
    17    17    18    1
    18    10    11    1
@<TRIPOS>MOLECULE
Molport-005-262-082 PubChem-43131503
 18 18 0 0 0
SMALL
GASTEIGER

@<TRIPOS>ATOM
      1 C          14.5860   41.8438    7.8215 C.ar    1  UNL1        0.1404
      2 C          14.8660   40.8749    8.7981 C.ar    1  UNL1        0.0370
      3 C          13.8243   40.2489    9.4862 C.ar    1  UNL1        0.0044
      4 C          12.4988   40.5870    9.2028 C.ar    1  UNL1        0.0149
      5 C          12.2058   41.5537    8.2292 C.ar    1  UNL1        0.0533
      6 C          13.2558   42.1758    7.5448 C.ar    1  UNL1        0.0516
      7 C          10.0465   41.3923    6.8575 C.2     1  UNL1        0.2266
      8 C           8.6632   41.9030    6.6752 C.3     1  UNL1        0.0949
      9 O          10.4817   40.4992    6.0840 O.2     1  UNL1       -0.2748
     10 N          10.8582   41.9271    7.9108 N.am    1  UNL1       -0.2838
     11 H          10.4483   42.6228    8.4740 H       1  UNL1        0.1549
     12 O          15.6055   42.4891    7.1158 O.3     1  UNL1       -0.4678
     13 C          17.2828   43.7881    8.2484 C.3     1  UNL1        0.0596
     14 C          16.0205   43.8180    7.4078 C.3     1  UNL1        0.2632
     15 C          16.2526   44.5708    6.1409 C.2     1  UNL1        0.3544
     16 O          17.1618   44.2179    5.3437 O.2     1  UNL1       -0.2463
     17 O          15.4533   45.6636    5.8353 O.3     1  UNL1       -0.4777
     18 H          14.7761   45.9286    6.4262 H       1  UNL1        0.2952
@<TRIPOS>BOND
     1    14    13    1
     2    14    15    1
     3    14    12    1
     4    15    17    1
     5     1    12    1
     6     2     3   ar
     7     4     5   ar
     8     5    10    1
     9     6     1   ar
    10     8     7    1
    11    10     7   am
    12    15    16    2
    13     1     2   ar
    14     3     4   ar
    15     5     6   ar
    16     7     9    2
    17    17    18    1
    18    10    11    1
@<TRIPOS>MOLECULE
Molport-005-262-082 PubChem-43131503
 18 18 0 0 0
SMALL
GASTEIGER

@<TRIPOS>ATOM
      1 C          14.2890   40.4015    8.6848 C.ar    1  UNL1        0.1404
      2 C          15.2291   41.3192    8.1900 C.ar    1  UNL1        0.0370
      3 C          14.8087   42.4242    7.4464 C.ar    1  UNL1        0.0044
      4 C          13.4486   42.6181    7.1934 C.ar    1  UNL1        0.0149
      5 C          12.4992   41.7081    7.6824 C.ar    1  UNL1        0.0533
      6 C          12.9294   40.6039    8.4263 C.ar    1  UNL1        0.0516
      7 C          10.3725   41.4786    6.2700 C.2     1  UNL1        0.2266
      8 C           8.9103   41.7314    6.1971 C.3     1  UNL1        0.0949
      9 O          10.9518   40.9222    5.3002 O.2     1  UNL1       -0.2748
     10 N          11.0948   41.8736    7.4432 N.am    1  UNL1       -0.2838
     11 H          10.5729   42.3030    8.1591 H       1  UNL1        0.1549
     12 O          14.6771   39.2853    9.4315 O.3     1  UNL1       -0.4678
     13 C          13.8212   39.1755   11.6761 C.3     1  UNL1        0.0596
     14 C          15.0462   39.3682   10.8027 C.3     1  UNL1        0.2632
     15 C          16.0804   38.3398   11.1165 C.2     1  UNL1        0.3544
     16 O          17.1948   38.3524   10.5294 O.2     1  UNL1       -0.2463
     17 O          15.8141   37.3669   12.0699 O.3     1  UNL1       -0.4777
     18 H          14.9861   37.3548   12.5084 H       1  UNL1        0.2952
@<TRIPOS>BOND
     1    14    13    1
     2    14    15    1
     3    14    12    1
     4    15    17    1
     5     1    12    1
     6     2     3   ar
     7     4     5   ar
     8     5    10    1
     9     6     1   ar
    10     8     7    1
    11    10     7   am
    12    15    16    2
    13     1     2   ar
    14     3     4   ar
    15     5     6   ar
    16     7     9    2
    17    17    18    1
    18    10    11    1
@<TRIPOS>MOLECULE
Molport-005-262-082 PubChem-43131503
 18 18 0 0 0
SMALL
GASTEIGER

@<TRIPOS>ATOM
      1 C          12.1636   42.1441    6.7995 C.ar    1  UNL1        0.1404
      2 C          11.8445   41.8378    8.1318 C.ar    1  UNL1        0.0370
      3 C          11.2322   40.6226    8.4464 C.ar    1  UNL1        0.0044
      4 C          10.9357   39.7080    7.4329 C.ar    1  UNL1        0.0149
      5 C          11.2495   40.0023    6.0976 C.ar    1  UNL1        0.0533
      6 C          11.8628   41.2222    5.7915 C.ar    1  UNL1        0.0516
      7 C           9.7900   39.0793    4.2033 C.2     1  UNL1        0.2266
      8 C           9.6607   38.0512    3.1386 C.3     1  UNL1        0.0949
      9 O           8.8695   39.9240    4.3609 O.2     1  UNL1       -0.2748
     10 N          10.9606   39.0889    5.0302 N.am    1  UNL1       -0.2838
     11 H          11.6364   38.3969    4.8466 H       1  UNL1        0.1549
     12 O          12.7758   43.3516    6.4515 O.3     1  UNL1       -0.4678
     13 C          14.8764   42.3494    7.0565 C.3     1  UNL1        0.0596
     14 C          14.1367   43.6377    6.7504 C.3     1  UNL1        0.2632
     15 C          14.7735   44.3475    5.6031 C.2     1  UNL1        0.3544
     16 O          15.4374   45.4014    5.7909 O.2     1  UNL1       -0.2463
     17 O          14.6399   43.8360    4.3197 O.3     1  UNL1       -0.4777
     18 H          14.1468   43.0522    4.1767 H       1  UNL1        0.2952
@<TRIPOS>BOND
     1    14    13    1
     2    14    15    1
     3    14    12    1
     4    15    17    1
     5     1    12    1
     6     2     3   ar
     7     4     5   ar
     8     5    10    1
     9     6     1   ar
    10     8     7    1
    11    10     7   am
    12    15    16    2
    13     1     2   ar
    14     3     4   ar
    15     5     6   ar
    16     7     9    2
    17    17    18    1
    18    10    11    1
@<TRIPOS>MOLECULE
Molport-005-262-082 PubChem-43131503
 18 18 0 0 0
SMALL
GASTEIGER

@<TRIPOS>ATOM
      1 C           5.8137   42.2648    8.8797 C.ar    1  UNL1        0.1404
      2 C           5.4689   43.5189    8.3514 C.ar    1  UNL1        0.0370
      3 C           6.0627   43.9719    7.1712 C.ar    1  UNL1        0.0044
      4 C           7.0030   43.1755    6.5132 C.ar    1  UNL1        0.0149
      5 C           7.3561   41.9203    7.0309 C.ar    1  UNL1        0.0533
      6 C           6.7563   41.4745    8.2138 C.ar    1  UNL1        0.0516
      7 C           8.0665   39.8012    5.7759 C.2     1  UNL1        0.2266
      8 C           9.1919   39.0614    5.1484 C.3     1  UNL1        0.0949
      9 O           6.9128   39.2969    5.7629 O.2     1  UNL1       -0.2748
     10 N           8.3170   41.0747    6.3839 N.am    1  UNL1       -0.2838
     11 H           9.2447   41.4030    6.3543 H       1  UNL1        0.1549
     12 O           5.2384   41.7829   10.0589 O.3     1  UNL1       -0.4678
     13 C           4.1020   40.1783   11.4435 C.3     1  UNL1        0.0596
     14 C           4.2043   40.8062   10.0666 C.3     1  UNL1        0.2632
     15 C           2.9071   41.4326    9.6789 C.2     1  UNL1        0.3544
     16 O           2.4259   42.3801   10.3554 O.2     1  UNL1       -0.2463
     17 O           2.2301   40.9723    8.5580 O.3     1  UNL1       -0.4777
     18 H           2.5853   40.2678    8.0526 H       1  UNL1        0.2952
@<TRIPOS>BOND
     1    14    13    1
     2    14    15    1
     3    14    12    1
     4    15    17    1
     5     1    12    1
     6     2     3   ar
     7     4     5   ar
     8     5    10    1
     9     6     1   ar
    10     8     7    1
    11    10     7   am
    12    15    16    2
    13     1     2   ar
    14     3     4   ar
    15     5     6   ar
    16     7     9    2
    17    17    18    1
    18    10    11    1
@<TRIPOS>MOLECULE
Molport-005-262-082 PubChem-43131503
 18 18 0 0 0
SMALL
GASTEIGER

@<TRIPOS>ATOM
      1 C           8.2684   39.5327    6.1682 C.ar    1  UNL1        0.1404
      2 C           9.3338   39.6376    7.0762 C.ar    1  UNL1        0.0370
      3 C           9.1791   40.3608    8.2610 C.ar    1  UNL1        0.0044
      4 C           7.9606   40.9823    8.5447 C.ar    1  UNL1        0.0149
      5 C           6.8882   40.8849    7.6454 C.ar    1  UNL1        0.0533
      6 C           7.0521   40.1585    6.4608 C.ar    1  UNL1        0.0516
      7 C           4.9108   41.5246    9.1459 C.2     1  UNL1        0.2266
      8 C           3.6034   42.2256    9.2265 C.3     1  UNL1        0.0949
      9 O           5.3709   40.9564   10.1711 O.2     1  UNL1       -0.2748
     10 N           5.6226   41.5090    7.9019 N.am    1  UNL1       -0.2838
     11 H           5.1989   41.9749    7.1452 H       1  UNL1        0.1549
     12 O           8.3911   38.8172    4.9737 O.3     1  UNL1       -0.4678
     13 C          10.2452   40.2610    4.4631 C.3     1  UNL1        0.0596
     14 C           9.3148   39.1769    3.9535 C.3     1  UNL1        0.2632
     15 C          10.0926   37.9789    3.5230 C.2     1  UNL1        0.3544
     16 O           9.5017   36.9180    3.1883 O.2     1  UNL1       -0.2463
     17 O          11.4788   38.0382    3.4830 O.3     1  UNL1       -0.4777
     18 H          11.9214   38.8258    3.7313 H       1  UNL1        0.2952
@<TRIPOS>BOND
     1    14    13    1
     2    14    15    1
     3    14    12    1
     4    15    17    1
     5     1    12    1
     6     2     3   ar
     7     4     5   ar
     8     5    10    1
     9     6     1   ar
    10     8     7    1
    11    10     7   am
    12    15    16    2
    13     1     2   ar
    14     3     4   ar
    15     5     6   ar
    16     7     9    2
    17    17    18    1
    18    10    11    1
