@<TRIPOS>MOLECULE
MolPort-002-622-394 9328043 PubChem-2027619 ZINC000009328043 ZINC09328043
 24 26 0 0 0
SMALL
GASTEIGER

@<TRIPOS>ATOM
      1 C          13.4119   41.9448    6.8589 C.ar    1  UNL1        0.1568
      2 C          13.1750   40.8519    7.6788 C.ar    1  UNL1        0.0689
      3 C          13.9309   40.1657    8.6238 C.ar    1  UNL1        0.0074
      4 C          13.3368   39.0395    9.2192 C.ar    1  UNL1        0.0179
      5 C          14.0278   38.3071   10.1869 C.ar    1  UNL1        0.0012
      6 C          13.4307   37.1864   10.7724 C.ar    1  UNL1       -0.0042
      7 C          12.1428   36.7919   10.3935 C.ar    1  UNL1       -0.0204
      8 C          11.5194   35.5988   11.0227 C.3     1  UNL1        0.0311
      9 C          11.4402   37.5147    9.4239 C.ar    1  UNL1        0.0149
     10 C          12.0216   38.6375    8.8301 C.ar    1  UNL1        0.0826
     11 C          11.9271   40.4284    7.3247 C.ar    1  UNL1        0.1621
     12 N          11.4417   41.2016    6.3416 N.ar    1  UNL1       -0.2329
     13 N          12.3451   42.1294    6.0425 N.ar    1  UNL1       -0.1527
     14 N          11.3376   39.3382    7.8766 N.ar    1  UNL1       -0.2268
     15 C          14.7180   44.0272    6.1770 C.2     1  UNL1        0.2272
     16 N          14.6089   42.7264    6.7634 N.am    1  UNL1       -0.2679
     17 O          13.8118   44.4809    5.4298 O.2     1  UNL1       -0.2747
     18 H          15.4312   42.3327    7.1350 H       1  UNL1        0.1563
     19 C          15.9360   44.8428    6.4285 C.3     1  UNL1        0.0854
     20 C          16.9832   43.9995    7.1280 C.3     1  UNL1        0.0101
     21 C          10.1483   41.0674    5.6899 C.3     1  UNL1        0.1292
     22 C           9.0764   41.7659    6.5101 C.3     1  UNL1        0.0264
     23 C           7.9721   39.5477    6.2379 C.3     1  UNL1        0.0001
     24 C           8.1510   40.7468    7.1500 C.3     1  UNL1        0.0021
@<TRIPOS>BOND
     1    23    24    1
     2    24    22    1
     3    22    21    1
     4    21    12    1
     5     1    16    1
     6     1     2   ar
     7    19    15    1
     8    19    20    1
     9     3     4   ar
    10     5     6   ar
    11     7     9   ar
    12     8     7    1
    13    10    14   ar
    14    10     4   ar
    15    11    12   ar
    16    11     2   ar
    17    12    13   ar
    18    16    15   am
    19     1    13   ar
    20    15    17    2
    21     2     3   ar
    22     4     5   ar
    23     6     7   ar
    24     9    10   ar
    25    11    14   ar
    26    16    18    1
@<TRIPOS>MOLECULE
MolPort-002-622-394 9328043 PubChem-2027619 ZINC000009328043 ZINC09328043
 24 26 0 0 0
SMALL
GASTEIGER

@<TRIPOS>ATOM
      1 C          13.5850   41.9099    7.0117 C.ar    1  UNL1        0.1568
      2 C          13.3152   40.8153    7.8191 C.ar    1  UNL1        0.0689
      3 C          14.0182   40.1494    8.8179 C.ar    1  UNL1        0.0074
      4 C          13.4084   39.0129    9.3769 C.ar    1  UNL1        0.0179
      5 C          14.0461   38.2995   10.3940 C.ar    1  UNL1        0.0012
      6 C          13.4339   37.1685   10.9429 C.ar    1  UNL1       -0.0042
      7 C          12.1842   36.7447   10.4778 C.ar    1  UNL1       -0.0204
      8 C          11.5442   35.5408   11.0688 C.3     1  UNL1        0.0311
      9 C          11.5352   37.4482    9.4581 C.ar    1  UNL1        0.0149
     10 C          12.1322   38.5810    8.8999 C.ar    1  UNL1        0.0826
     11 C          12.1042   40.3635    7.3817 C.ar    1  UNL1        0.1621
     12 N          11.6717   41.1221    6.3632 N.ar    1  UNL1       -0.2329
     13 N          12.5737   42.0681    6.1224 N.ar    1  UNL1       -0.1527
     14 N          11.5012   39.2629    7.8974 N.ar    1  UNL1       -0.2268
     15 C          15.0845   43.7249    6.0297 C.2     1  UNL1        0.2272
     16 N          14.7687   42.7168    6.9950 N.am    1  UNL1       -0.2679
     17 O          14.4677   43.7908    4.9340 O.2     1  UNL1       -0.2747
     18 H          15.4246   42.5639    7.7131 H       1  UNL1        0.1563
     19 C          16.1805   44.6899    6.3119 C.3     1  UNL1        0.0854
     20 C          17.5222   44.0290    6.0669 C.3     1  UNL1        0.0101
     21 C          10.4298   40.9573    5.6243 C.3     1  UNL1        0.1292
     22 C          10.7174   40.4044    4.2382 C.3     1  UNL1        0.0264
     23 C           9.4909   38.5328    3.1398 C.3     1  UNL1        0.0001
     24 C          10.4993   38.9024    4.2114 C.3     1  UNL1        0.0021
@<TRIPOS>BOND
     1    23    24    1
     2    24    22    1
     3    22    21    1
     4    21    12    1
     5     1    16    1
     6     1     2   ar
     7    19    15    1
     8    19    20    1
     9     3     4   ar
    10     5     6   ar
    11     7     9   ar
    12     8     7    1
    13    10    14   ar
    14    10     4   ar
    15    11    12   ar
    16    11     2   ar
    17    12    13   ar
    18    16    15   am
    19     1    13   ar
    20    15    17    2
    21     2     3   ar
    22     4     5   ar
    23     6     7   ar
    24     9    10   ar
    25    11    14   ar
    26    16    18    1
@<TRIPOS>MOLECULE
MolPort-002-622-394 9328043 PubChem-2027619 ZINC000009328043 ZINC09328043
 24 26 0 0 0
SMALL
GASTEIGER

@<TRIPOS>ATOM
      1 C          11.6257   41.9790    8.5201 C.ar    1  UNL1        0.1568
      2 C          12.6041   41.1879    9.1029 C.ar    1  UNL1        0.0689
      3 C          12.6590   40.3969   10.2460 C.ar    1  UNL1        0.0074
      4 C          13.8876   39.7777   10.5340 C.ar    1  UNL1        0.0179
      5 C          14.0171   38.9572   11.6565 C.ar    1  UNL1        0.0012
      6 C          15.2435   38.3470   11.9374 C.ar    1  UNL1       -0.0042
      7 C          16.3451   38.5546   11.1001 C.ar    1  UNL1       -0.0204
      8 C          17.6432   37.9010   11.4096 C.3     1  UNL1        0.0311
      9 C          16.2304   39.3757    9.9738 C.ar    1  UNL1        0.0149
     10 C          15.0120   39.9917    9.6779 C.ar    1  UNL1        0.0826
     11 C          13.7040   41.3782    8.3180 C.ar    1  UNL1        0.1621
     12 N          13.4201   42.2416    7.3312 N.ar    1  UNL1       -0.2329
     13 N          12.1521   42.6224    7.4488 N.ar    1  UNL1       -0.1527
     14 N          14.9031   40.8008    8.5819 N.ar    1  UNL1       -0.2268
     15 C           9.8456   43.3436    9.7350 C.2     1  UNL1        0.2272
     16 N          10.2905   42.2082    8.9861 N.am    1  UNL1       -0.2679
     17 O          10.6679   44.1120   10.2996 O.2     1  UNL1       -0.2747
     18 H           9.6177   41.5221    8.7717 H       1  UNL1        0.1563
     19 C           8.3875   43.6014    9.8754 C.3     1  UNL1        0.0854
     20 C           8.0328   44.9177    9.2132 C.3     1  UNL1        0.0101
     21 C          14.3292   42.7052    6.2949 C.3     1  UNL1        0.1292
     22 C          15.1981   43.8316    6.8295 C.3     1  UNL1        0.0264
     23 C          17.6889   43.7498    6.7726 C.3     1  UNL1        0.0001
     24 C          16.4319   44.0059    5.9625 C.3     1  UNL1        0.0021
@<TRIPOS>BOND
     1    23    24    1
     2    24    22    1
     3    22    21    1
     4    21    12    1
     5     1    16    1
     6     1     2   ar
     7    19    15    1
     8    19    20    1
     9     3     4   ar
    10     5     6   ar
    11     7     9   ar
    12     8     7    1
    13    10    14   ar
    14    10     4   ar
    15    11    12   ar
    16    11     2   ar
    17    12    13   ar
    18    16    15   am
    19     1    13   ar
    20    15    17    2
    21     2     3   ar
    22     4     5   ar
    23     6     7   ar
    24     9    10   ar
    25    11    14   ar
    26    16    18    1
@<TRIPOS>MOLECULE
MolPort-002-622-394 9328043 PubChem-2027619 ZINC000009328043 ZINC09328043
 24 26 0 0 0
SMALL
GASTEIGER

@<TRIPOS>ATOM
      1 C          16.8366   34.1377    4.3039 C.ar    1  UNL1        0.1568
      2 C          17.3479   34.5124    5.5371 C.ar    1  UNL1        0.0689
      3 C          18.1396   35.5673    5.9794 C.ar    1  UNL1        0.0074
      4 C          18.5017   35.5663    7.3377 C.ar    1  UNL1        0.0179
      5 C          19.2834   36.5993    7.8592 C.ar    1  UNL1        0.0012
      6 C          19.6415   36.5895    9.2109 C.ar    1  UNL1       -0.0042
      7 C          19.2220   35.5483   10.0463 C.ar    1  UNL1       -0.0204
      8 C          19.6097   35.5489   11.4808 C.3     1  UNL1        0.0311
      9 C          18.4408   34.5062    9.5368 C.ar    1  UNL1        0.0149
     10 C          18.0730   34.5015    8.1892 C.ar    1  UNL1        0.0826
     11 C          16.9700   33.5071    6.3788 C.ar    1  UNL1        0.1621
     12 N          16.2877   32.5722    5.7003 N.ar    1  UNL1       -0.2329
     13 N          16.2059   32.9436    4.4268 N.ar    1  UNL1       -0.1527
     14 N          17.3167   33.4782    7.6903 N.ar    1  UNL1       -0.2268
     15 C          18.1190   34.6542    2.1601 C.2     1  UNL1        0.2272
     16 N          17.0050   34.8025    3.0459 N.am    1  UNL1       -0.2679
     17 O          19.1960   34.1333    2.5525 O.2     1  UNL1       -0.2747
     18 H          16.2890   35.4173    2.7655 H       1  UNL1        0.1563
     19 C          18.0136   35.1528    0.7628 C.3     1  UNL1        0.0854
     20 C          18.7010   34.1860   -0.1805 C.3     1  UNL1        0.0101
     21 C          15.7242   31.3452    6.2410 C.3     1  UNL1        0.1292
     22 C          14.2323   31.2874    5.9571 C.3     1  UNL1        0.0264
     23 C          12.4965   31.6381    4.2028 C.3     1  UNL1        0.0001
     24 C          13.9720   31.4029    4.4661 C.3     1  UNL1        0.0021
@<TRIPOS>BOND
     1    23    24    1
     2    24    22    1
     3    22    21    1
     4    21    12    1
     5     1    16    1
     6     1     2   ar
     7    19    15    1
     8    19    20    1
     9     3     4   ar
    10     5     6   ar
    11     7     9   ar
    12     8     7    1
    13    10    14   ar
    14    10     4   ar
    15    11    12   ar
    16    11     2   ar
    17    12    13   ar
    18    16    15   am
    19     1    13   ar
    20    15    17    2
    21     2     3   ar
    22     4     5   ar
    23     6     7   ar
    24     9    10   ar
    25    11    14   ar
    26    16    18    1
@<TRIPOS>MOLECULE
MolPort-002-622-394 9328043 PubChem-2027619 ZINC000009328043 ZINC09328043
 24 26 0 0 0
SMALL
GASTEIGER

@<TRIPOS>ATOM
      1 C          14.4435   41.2574    8.1754 C.ar    1  UNL1        0.1568
      2 C          13.1703   40.9450    7.7236 C.ar    1  UNL1        0.0689
      3 C          12.4522   41.2355    6.5680 C.ar    1  UNL1        0.0074
      4 C          11.1273   40.7698    6.5072 C.ar    1  UNL1        0.0179
      5 C          10.3474   41.0099    5.3740 C.ar    1  UNL1        0.0012
      6 C           9.0294   40.5456    5.3226 C.ar    1  UNL1       -0.0042
      7 C           8.4848   39.8415    6.4021 C.ar    1  UNL1       -0.0204
      8 C           7.0827   39.3537    6.3356 C.3     1  UNL1        0.0311
      9 C           9.2537   39.5959    7.5442 C.ar    1  UNL1        0.0149
     10 C          10.5725   40.0515    7.6113 C.ar    1  UNL1        0.0826
     11 C          12.6004   40.2676    8.7619 C.ar    1  UNL1        0.1621
     12 N          13.4631   40.1869    9.7862 N.ar    1  UNL1       -0.2329
     13 N          14.5930   40.7961    9.4417 N.ar    1  UNL1       -0.1527
     14 N          11.3204   39.8185    8.7313 N.ar    1  UNL1       -0.2268
     15 C          15.3001   43.3815    7.0520 C.2     1  UNL1        0.2272
     16 N          15.4459   42.0324    7.5065 N.am    1  UNL1       -0.2679
     17 O          14.1633   43.9127    6.9485 O.2     1  UNL1       -0.2747
     18 H          16.3140   41.5971    7.3448 H       1  UNL1        0.1563
     19 C          16.5086   44.1574    6.6651 C.3     1  UNL1        0.0854
     20 C          17.6109   43.9308    7.6803 C.3     1  UNL1        0.0101
     21 C          13.2269   39.5496   11.0721 C.3     1  UNL1        0.1292
     22 C          14.5202   38.9552   11.6046 C.3     1  UNL1        0.0264
     23 C          13.1518   36.9739   10.9597 C.3     1  UNL1        0.0001
     24 C          14.4545   37.4388   11.5831 C.3     1  UNL1        0.0021
@<TRIPOS>BOND
     1    23    24    1
     2    24    22    1
     3    22    21    1
     4    21    12    1
     5     1    16    1
     6     1     2   ar
     7    19    15    1
     8    19    20    1
     9     3     4   ar
    10     5     6   ar
    11     7     9   ar
    12     8     7    1
    13    10    14   ar
    14    10     4   ar
    15    11    12   ar
    16    11     2   ar
    17    12    13   ar
    18    16    15   am
    19     1    13   ar
    20    15    17    2
    21     2     3   ar
    22     4     5   ar
    23     6     7   ar
    24     9    10   ar
    25    11    14   ar
    26    16    18    1
@<TRIPOS>MOLECULE
MolPort-002-622-394 9328043 PubChem-2027619 ZINC000009328043 ZINC09328043
 24 26 0 0 0
SMALL
GASTEIGER

@<TRIPOS>ATOM
      1 C          11.4067   39.7848    7.3890 C.ar    1  UNL1        0.1568
      2 C          12.5171   40.6152    7.3886 C.ar    1  UNL1        0.0689
      3 C          12.9325   41.6798    6.5953 C.ar    1  UNL1        0.0074
      4 C          14.1861   42.2432    6.8903 C.ar    1  UNL1        0.0179
      5 C          14.6654   43.3240    6.1470 C.ar    1  UNL1        0.0012
      6 C          15.9147   43.8769    6.4452 C.ar    1  UNL1       -0.0042
      7 C          16.6904   43.3525    7.4849 C.ar    1  UNL1       -0.0204
      8 C          18.0166   43.9484    7.7915 C.3     1  UNL1        0.0311
      9 C          16.2239   42.2688    8.2358 C.ar    1  UNL1        0.0149
     10 C          14.9775   41.7056    7.9521 C.ar    1  UNL1        0.0826
     11 C          13.3080   40.1219    8.3852 C.ar    1  UNL1        0.1621
     12 N          12.7261   39.0506    8.9453 N.ar    1  UNL1       -0.2329
     13 N          11.5644   38.8298    8.3386 N.ar    1  UNL1       -0.1527
     14 N          14.5261   40.6411    8.6809 N.ar    1  UNL1       -0.2268
     15 C          10.3166   39.4242    5.1111 C.2     1  UNL1        0.2272
     16 N          10.2923   39.8101    6.4889 N.am    1  UNL1       -0.2679
     17 O          11.4052   39.2965    4.4915 O.2     1  UNL1       -0.2747
     18 H           9.4314   40.1213    6.8513 H       1  UNL1        0.1563
     19 C           9.0342   39.2020    4.3913 C.3     1  UNL1        0.0854
     20 C           9.3006   38.5090    3.0699 C.3     1  UNL1        0.0101
     21 C          13.2568   38.2437   10.0328 C.3     1  UNL1        0.1292
     22 C          14.0780   37.0928    9.4753 C.3     1  UNL1        0.0264
     23 C          12.1677   35.9404   10.5872 C.3     1  UNL1        0.0001
     24 C          13.3179   35.7858    9.6100 C.3     1  UNL1        0.0021
@<TRIPOS>BOND
     1    23    24    1
     2    24    22    1
     3    22    21    1
     4    21    12    1
     5     1    16    1
     6     1     2   ar
     7    19    15    1
     8    19    20    1
     9     3     4   ar
    10     5     6   ar
    11     7     9   ar
    12     8     7    1
    13    10    14   ar
    14    10     4   ar
    15    11    12   ar
    16    11     2   ar
    17    12    13   ar
    18    16    15   am
    19     1    13   ar
    20    15    17    2
    21     2     3   ar
    22     4     5   ar
    23     6     7   ar
    24     9    10   ar
    25    11    14   ar
    26    16    18    1
@<TRIPOS>MOLECULE
MolPort-002-622-394 9328043 PubChem-2027619 ZINC000009328043 ZINC09328043
 24 26 0 0 0
SMALL
GASTEIGER

@<TRIPOS>ATOM
      1 C          12.1264   39.5224    8.8232 C.ar    1  UNL1        0.1568
      2 C          13.2468   40.2825    8.5235 C.ar    1  UNL1        0.0689
      3 C          14.5483   40.3273    9.0128 C.ar    1  UNL1        0.0074
      4 C          15.3992   41.3063    8.4713 C.ar    1  UNL1        0.0179
      5 C          16.7241   41.4046    8.9018 C.ar    1  UNL1        0.0012
      6 C          17.5633   42.3831    8.3599 C.ar    1  UNL1       -0.0042
      7 C          17.0831   43.2676    7.3878 C.ar    1  UNL1       -0.0204
      8 C          17.9847   44.3034    6.8201 C.3     1  UNL1        0.0311
      9 C          15.7579   43.1821    6.9491 C.ar    1  UNL1        0.0149
     10 C          14.9067   42.2095    7.4790 C.ar    1  UNL1        0.0826
     11 C          12.8105   41.1714    7.5848 C.ar    1  UNL1        0.1621
     12 N          11.5056   40.9777    7.3403 N.ar    1  UNL1       -0.2329
     13 N          11.0736   39.9751    8.0984 N.ar    1  UNL1       -0.1527
     14 N          13.6094   42.1322    7.0560 N.ar    1  UNL1       -0.2268
     15 C          11.1552   37.3399    9.7180 C.2     1  UNL1        0.2272
     16 N          12.0063   38.4869    9.8061 N.am    1  UNL1       -0.2679
     17 O          10.2149   37.2916    8.8820 O.2     1  UNL1       -0.2747
     18 H          12.5597   38.5723   10.6158 H       1  UNL1        0.1563
     19 C          11.3647   36.2005   10.6507 C.3     1  UNL1        0.0854
     20 C          12.7375   35.5988   10.4260 C.3     1  UNL1        0.0101
     21 C          10.6759   41.7272    6.4102 C.3     1  UNL1        0.1292
     22 C           9.9210   40.7729    5.4996 C.3     1  UNL1        0.0264
     23 C          10.1144   39.1845    3.5882 C.3     1  UNL1        0.0001
     24 C          10.8623   40.1580    4.4797 C.3     1  UNL1        0.0021
@<TRIPOS>BOND
     1    23    24    1
     2    24    22    1
     3    22    21    1
     4    21    12    1
     5     1    16    1
     6     1     2   ar
     7    19    15    1
     8    19    20    1
     9     3     4   ar
    10     5     6   ar
    11     7     9   ar
    12     8     7    1
    13    10    14   ar
    14    10     4   ar
    15    11    12   ar
    16    11     2   ar
    17    12    13   ar
    18    16    15   am
    19     1    13   ar
    20    15    17    2
    21     2     3   ar
    22     4     5   ar
    23     6     7   ar
    24     9    10   ar
    25    11    14   ar
    26    16    18    1
@<TRIPOS>MOLECULE
MolPort-002-622-394 9328043 PubChem-2027619 ZINC000009328043 ZINC09328043
 24 26 0 0 0
SMALL
GASTEIGER

@<TRIPOS>ATOM
      1 C          14.7646   36.1275    3.7090 C.ar    1  UNL1        0.1568
      2 C          15.4218   35.4792    4.7437 C.ar    1  UNL1        0.0689
      3 C          15.0157   34.9151    5.9488 C.ar    1  UNL1        0.0074
      4 C          16.0218   34.3863    6.7759 C.ar    1  UNL1        0.0179
      5 C          15.6910   33.7910    7.9950 C.ar    1  UNL1        0.0012
      6 C          16.6981   33.2697    8.8132 C.ar    1  UNL1       -0.0042
      7 C          18.0385   33.3420    8.4183 C.ar    1  UNL1       -0.0204
      8 C          19.0996   32.7849    9.2969 C.3     1  UNL1        0.0311
      9 C          18.3843   33.9375    7.2011 C.ar    1  UNL1        0.0149
     10 C          17.3905   34.4618    6.3712 C.ar    1  UNL1        0.0826
     11 C          16.7405   35.5441    4.3991 C.ar    1  UNL1        0.1621
     12 N          16.8801   36.2035    3.2392 N.ar    1  UNL1       -0.2329
     13 N          15.6774   36.5724    2.8104 N.ar    1  UNL1       -0.1527
     14 N          17.7301   35.0514    5.1858 N.ar    1  UNL1       -0.2268
     15 C          12.6550   37.4268    4.3161 C.2     1  UNL1        0.2272
     16 N          13.3643   36.4106    3.6005 N.am    1  UNL1       -0.2679
     17 O          13.1587   37.9798    5.3289 O.2     1  UNL1       -0.2747
     18 H          12.8426   35.8556    2.9768 H       1  UNL1        0.1563
     19 C          11.2879   37.8126    3.8754 C.3     1  UNL1        0.0854
     20 C          10.9797   39.2239    4.3342 C.3     1  UNL1        0.0101
     21 C          18.1270   36.4862    2.5458 C.3     1  UNL1        0.1292
     22 C          18.7395   37.7713    3.0779 C.3     1  UNL1        0.0264
     23 C          19.6512   38.6388    5.2296 C.3     1  UNL1        0.0001
     24 C          19.6509   37.4759    4.2552 C.3     1  UNL1        0.0021
@<TRIPOS>BOND
     1    23    24    1
     2    24    22    1
     3    22    21    1
     4    21    12    1
     5     1    16    1
     6     1     2   ar
     7    19    15    1
     8    19    20    1
     9     3     4   ar
    10     5     6   ar
    11     7     9   ar
    12     8     7    1
    13    10    14   ar
    14    10     4   ar
    15    11    12   ar
    16    11     2   ar
    17    12    13   ar
    18    16    15   am
    19     1    13   ar
    20    15    17    2
    21     2     3   ar
    22     4     5   ar
    23     6     7   ar
    24     9    10   ar
    25    11    14   ar
    26    16    18    1
@<TRIPOS>MOLECULE
MolPort-002-622-394 9328043 PubChem-2027619 ZINC000009328043 ZINC09328043
 24 26 0 0 0
SMALL
GASTEIGER

@<TRIPOS>ATOM
      1 C          10.9154   40.1412    7.3685 C.ar    1  UNL1        0.1568
      2 C          12.0525   40.9246    7.2417 C.ar    1  UNL1        0.0689
      3 C          12.4251   41.9646    6.3962 C.ar    1  UNL1        0.0074
      4 C          13.7246   42.4775    6.5515 C.ar    1  UNL1        0.0179
      5 C          14.1667   43.5314    5.7489 C.ar    1  UNL1        0.0012
      6 C          15.4619   44.0341    5.9079 C.ar    1  UNL1       -0.0042
      7 C          16.3205   43.4862    6.8672 C.ar    1  UNL1       -0.0204
      8 C          17.6947   44.0288    7.0261 C.3     1  UNL1        0.0311
      9 C          15.8918   42.4289    7.6762 C.ar    1  UNL1        0.0149
     10 C          14.6006   41.9159    7.5313 C.ar    1  UNL1        0.0826
     11 C          12.9229   40.4067    8.1561 C.ar    1  UNL1        0.1621
     12 N          12.3600   39.3652    8.7872 N.ar    1  UNL1       -0.2329
     13 N          11.1330   39.1881    8.3081 N.ar    1  UNL1       -0.1527
     14 N          14.1854   40.8771    8.3164 N.ar    1  UNL1       -0.2268
     15 C           8.7065   39.1928    6.5148 C.2     1  UNL1        0.2272
     16 N           9.7146   40.2058    6.5896 N.am    1  UNL1       -0.2679
     17 O           8.9330   38.0204    6.9142 O.2     1  UNL1       -0.2747
     18 H           9.5698   41.0212    6.0573 H       1  UNL1        0.1563
     19 C           7.3810   39.5223    5.9262 C.3     1  UNL1        0.0854
     20 C           6.5932   40.3889    6.8881 C.3     1  UNL1        0.0101
     21 C          12.9687   38.5456    9.8232 C.3     1  UNL1        0.1292
     22 C          13.1100   39.3476   11.1063 C.3     1  UNL1        0.0264
     23 C          14.5843   37.4027   11.6143 C.3     1  UNL1        0.0001
     24 C          14.3102   38.8669   11.9018 C.3     1  UNL1        0.0021
@<TRIPOS>BOND
     1    23    24    1
     2    24    22    1
     3    22    21    1
     4    21    12    1
     5     1    16    1
     6     1     2   ar
     7    19    15    1
     8    19    20    1
     9     3     4   ar
    10     5     6   ar
    11     7     9   ar
    12     8     7    1
    13    10    14   ar
    14    10     4   ar
    15    11    12   ar
    16    11     2   ar
    17    12    13   ar
    18    16    15   am
    19     1    13   ar
    20    15    17    2
    21     2     3   ar
    22     4     5   ar
    23     6     7   ar
    24     9    10   ar
    25    11    14   ar
    26    16    18    1
@<TRIPOS>MOLECULE
MolPort-002-622-394 9328043 PubChem-2027619 ZINC000009328043 ZINC09328043
 24 26 0 0 0
SMALL
GASTEIGER

@<TRIPOS>ATOM
      1 C          11.2615   42.0505    8.4313 C.ar    1  UNL1        0.1568
      2 C          12.2612   41.2910    9.0200 C.ar    1  UNL1        0.0689
      3 C          12.3592   40.5648   10.2025 C.ar    1  UNL1        0.0074
      4 C          13.5977   39.9598   10.4780 C.ar    1  UNL1        0.0179
      5 C          13.7695   39.2028   11.6388 C.ar    1  UNL1        0.0012
      6 C          15.0056   38.6065   11.9067 C.ar    1  UNL1       -0.0042
      7 C          16.0747   38.7646   11.0181 C.ar    1  UNL1       -0.0204
      8 C          17.3836   38.1264   11.3144 C.3     1  UNL1        0.0311
      9 C          15.9176   39.5220    9.8529 C.ar    1  UNL1        0.0149
     10 C          14.6889   40.1232    9.5694 C.ar    1  UNL1        0.0826
     11 C          13.3306   41.4348    8.1847 C.ar    1  UNL1        0.1621
     12 N          13.0096   42.2426    7.1628 N.ar    1  UNL1       -0.2329
     13 N          11.7471   42.6322    7.3068 N.ar    1  UNL1       -0.1527
     14 N          14.5387   40.8703    8.4349 N.ar    1  UNL1       -0.2268
     15 C           8.7668   41.5557    8.6282 C.2     1  UNL1        0.2272
     16 N           9.9449   42.3084    8.9340 N.am    1  UNL1       -0.2679
     17 O           8.7386   40.7619    7.6513 O.2     1  UNL1       -0.2747
     18 H           9.8412   43.0729    9.5455 H       1  UNL1        0.1563
     19 C           7.5463   41.7386    9.4582 C.3     1  UNL1        0.0854
     20 C           6.3102   41.5764    8.5962 C.3     1  UNL1        0.0101
     21 C          13.8790   42.6456    6.0686 C.3     1  UNL1        0.1292
     22 C          14.5788   43.9502    6.4123 C.3     1  UNL1        0.0264
     23 C          16.7684   44.1131    7.5925 C.3     1  UNL1        0.0001
     24 C          16.0828   43.7961    6.2768 C.3     1  UNL1        0.0021
@<TRIPOS>BOND
     1    23    24    1
     2    24    22    1
     3    22    21    1
     4    21    12    1
     5     1    16    1
     6     1     2   ar
     7    19    15    1
     8    19    20    1
     9     3     4   ar
    10     5     6   ar
    11     7     9   ar
    12     8     7    1
    13    10    14   ar
    14    10     4   ar
    15    11    12   ar
    16    11     2   ar
    17    12    13   ar
    18    16    15   am
    19     1    13   ar
    20    15    17    2
    21     2     3   ar
    22     4     5   ar
    23     6     7   ar
    24     9    10   ar
    25    11    14   ar
    26    16    18    1
