@<TRIPOS>MOLECULE
MolPort-020-298-488 MCULE-2685163120 PubChem-110269683
 28 30 0 0 0
SMALL
GASTEIGER

@<TRIPOS>ATOM
      1 C          13.5749   42.5779    6.6646 C.ar    1  UNL1        0.1357
      2 C          15.8163   43.3298    6.5326 C.ar    1  UNL1        0.1406
      3 C          15.2308   41.7475    8.1892 C.ar    1  UNL1        0.0641
      4 C          13.9109   41.7544    7.7385 C.ar    1  UNL1        0.0492
      5 C          16.8444   44.1810    5.8796 C.3     1  UNL1        0.0737
      6 N          14.5344   43.3487    6.0834 N.ar    1  UNL1       -0.2159
      7 N          16.1587   42.5330    7.5780 N.ar    1  UNL1       -0.2349
      8 C          15.6118   40.8700    9.3339 C.3     1  UNL1        0.0564
      9 C          17.1261   40.6491    9.3753 C.3     1  UNL1        0.0087
     10 C          17.5319   39.4761   10.2739 C.3     1  UNL1        0.0178
     11 C          16.3814   39.0285   11.1719 C.3     1  UNL1        0.0725
     12 C          14.8584   39.5363    9.2764 C.3     1  UNL1        0.0784
     13 N          15.2248   38.6081   10.3651 N.3     1  UNL1       -0.2647
     14 C          14.0661   38.3630   11.2320 C.3     1  UNL1        0.1587
     15 C          12.7382   38.5184   10.5321 C.2     1  UNL1        0.2421
     16 C          12.7194   36.0756    9.9252 C.3     1  UNL1        0.1149
     17 C          10.8327   37.5480    9.2199 C.3     1  UNL1        0.1149
     18 N          12.1078   37.3944    9.9005 N.am    1  UNL1       -0.2749
     19 O          12.1954   39.6553   10.4825 O.2     1  UNL1       -0.2734
     20 N          12.2222   42.5925    6.1936 N.pl3   1  UNL1       -0.2833
     21 H          11.8595   43.4622    5.9085 H       1  UNL1        0.1550
     22 C          10.7040   38.6110    3.7749 C.3     1  UNL1        0.0521
     23 C          10.5911   39.5247    4.9416 C.ar    1  UNL1        0.0608
     24 C          11.3467   41.4627    6.0976 C.ar    1  UNL1        0.1328
     25 C          10.4009   41.2483    7.1037 C.ar    1  UNL1        0.0344
     26 C           9.5424   40.1510    7.0163 C.ar    1  UNL1        0.0041
     27 C           9.6348   39.2808    5.9292 C.ar    1  UNL1        0.0148
     28 N          11.4183   40.5994    5.0452 N.ar    1  UNL1       -0.2349
@<TRIPOS>BOND
     1    22    23    1
     2    24    28   ar
     3    24    20    1
     4    25    26   ar
     5    27    23   ar
     6     2     6   ar
     7     3     7   ar
     8     4     1   ar
     9     8     3    1
    10     8     9    1
    11     9    10    1
    12    10    11    1
    13    11    13    1
    14    12    13    1
    15    12     8    1
    16    14    13    1
    17    14    15    1
    18    15    18   am
    19    16    18    1
    20    17    18    1
    21     5     2    1
    22    20     1    1
    23    23    28   ar
    24    24    25   ar
    25    26    27   ar
    26     1     6   ar
    27     2     7   ar
    28     3     4   ar
    29    15    19    2
    30    20    21    1
@<TRIPOS>MOLECULE
MolPort-020-298-488 MCULE-2685163120 PubChem-110269683
 28 30 0 0 0
SMALL
GASTEIGER

@<TRIPOS>ATOM
      1 C          13.9361   42.5224    6.5815 C.ar    1  UNL1        0.1357
      2 C          16.1406   43.3816    6.6735 C.ar    1  UNL1        0.1406
      3 C          15.4770   41.7488    8.2497 C.ar    1  UNL1        0.0641
      4 C          14.2075   41.6999    7.6742 C.ar    1  UNL1        0.0492
      5 C          17.1839   44.2902    6.1312 C.3     1  UNL1        0.0737
      6 N          14.9082   43.3463    6.1033 N.ar    1  UNL1       -0.2159
      7 N          16.4198   42.5864    7.7388 N.ar    1  UNL1       -0.2349
      8 C          15.7891   40.8733    9.4166 C.3     1  UNL1        0.0564
      9 C          17.2790   40.5240    9.4573 C.3     1  UNL1        0.0087
     10 C          17.5886   39.3454   10.3864 C.3     1  UNL1        0.0178
     11 C          16.4101   39.0234   11.3018 C.3     1  UNL1        0.0725
     12 C          14.9233   39.6084    9.3997 C.3     1  UNL1        0.0784
     13 N          15.2160   38.6823   10.5122 N.3     1  UNL1       -0.2647
     14 C          14.0466   38.5617   11.3908 C.3     1  UNL1        0.1587
     15 C          12.7282   38.5899   10.6571 C.2     1  UNL1        0.2421
     16 C          12.8983   36.1280   10.1612 C.3     1  UNL1        0.1149
     17 C          10.9289   37.4278    9.3508 C.3     1  UNL1        0.1149
     18 N          12.1950   37.3967   10.0640 N.am    1  UNL1       -0.2749
     19 O          12.1070   39.6813   10.5448 O.2     1  UNL1       -0.2734
     20 N          12.6355   42.4798    5.9826 N.pl3   1  UNL1       -0.2833
     21 H          12.4460   43.1451    5.2821 H       1  UNL1        0.1550
     22 C           8.9577   41.1253    8.9230 C.3     1  UNL1        0.0521
     23 C           9.7938   40.8828    7.7184 C.ar    1  UNL1        0.0608
     24 C          11.5842   41.5619    6.3056 C.ar    1  UNL1        0.1328
     25 C          11.3720   40.4540    5.4807 C.ar    1  UNL1        0.0344
     26 C          10.3511   39.5535    5.7900 C.ar    1  UNL1        0.0041
     27 C           9.5543   39.7657    6.9159 C.ar    1  UNL1        0.0148
     28 N          10.7934   41.7484    7.4000 N.ar    1  UNL1       -0.2349
@<TRIPOS>BOND
     1    22    23    1
     2    24    28   ar
     3    24    20    1
     4    25    26   ar
     5    27    23   ar
     6     2     6   ar
     7     3     7   ar
     8     4     1   ar
     9     8     3    1
    10     8     9    1
    11     9    10    1
    12    10    11    1
    13    11    13    1
    14    12    13    1
    15    12     8    1
    16    14    13    1
    17    14    15    1
    18    15    18   am
    19    16    18    1
    20    17    18    1
    21     5     2    1
    22    20     1    1
    23    23    28   ar
    24    24    25   ar
    25    26    27   ar
    26     1     6   ar
    27     2     7   ar
    28     3     4   ar
    29    15    19    2
    30    20    21    1
@<TRIPOS>MOLECULE
MolPort-020-298-488 MCULE-2685163120 PubChem-110269683
 28 30 0 0 0
SMALL
GASTEIGER

@<TRIPOS>ATOM
      1 C           8.3490   41.8348   10.1577 C.ar    1  UNL1        0.1357
      2 C           9.1901   41.3007   12.3057 C.ar    1  UNL1        0.1406
      3 C          10.5775   40.9847   10.4173 C.ar    1  UNL1        0.0641
      4 C           9.5598   41.4486    9.5839 C.ar    1  UNL1        0.0492
      5 C           8.9888   41.2221   13.7759 C.3     1  UNL1        0.0737
      6 N           8.1889   41.7532   11.5068 N.ar    1  UNL1       -0.2159
      7 N          10.3751   40.9206   11.7614 N.ar    1  UNL1       -0.2349
      8 C          11.8821   40.5710    9.8237 C.3     1  UNL1        0.0564
      9 C          12.7845   39.9257   10.8785 C.3     1  UNL1        0.0087
     10 C          14.2474   39.8310   10.4324 C.3     1  UNL1        0.0178
     11 C          14.3981   40.0813    8.9340 C.3     1  UNL1        0.0725
     12 C          12.5786   41.7586    9.1497 C.3     1  UNL1        0.0784
     13 N          13.8964   41.4178    8.5768 N.3     1  UNL1       -0.2647
     14 C          13.8692   41.5741    7.1177 C.3     1  UNL1        0.1587
     15 C          14.2291   42.9621    6.6472 C.2     1  UNL1        0.2421
     16 C          16.5920   42.6777    7.4669 C.3     1  UNL1        0.1149
     17 C          15.8982   44.8171    6.3868 C.3     1  UNL1        0.1149
     18 N          15.5558   43.4770    6.8335 N.am    1  UNL1       -0.2749
     19 O          13.3437   43.6811    6.1099 O.2     1  UNL1       -0.2734
     20 N           7.2973   42.3131    9.3109 N.pl3   1  UNL1       -0.2833
     21 H           7.5665   42.7724    8.4828 H       1  UNL1        0.1550
     22 C           3.5578   39.8955   11.3549 C.3     1  UNL1        0.0521
     23 C           4.0580   41.0305   10.5362 C.ar    1  UNL1        0.0608
     24 C           5.8911   42.1871    9.5538 C.ar    1  UNL1        0.1328
     25 C           5.0198   43.1343    9.0094 C.ar    1  UNL1        0.0344
     26 C           3.6479   43.0171    9.2394 C.ar    1  UNL1        0.0041
     27 C           3.1595   41.9592   10.0075 C.ar    1  UNL1        0.0148
     28 N           5.3911   41.1623   10.3005 N.ar    1  UNL1       -0.2349
@<TRIPOS>BOND
     1    22    23    1
     2    24    28   ar
     3    24    20    1
     4    25    26   ar
     5    27    23   ar
     6     2     6   ar
     7     3     7   ar
     8     4     1   ar
     9     8     3    1
    10     8     9    1
    11     9    10    1
    12    10    11    1
    13    11    13    1
    14    12    13    1
    15    12     8    1
    16    14    13    1
    17    14    15    1
    18    15    18   am
    19    16    18    1
    20    17    18    1
    21     5     2    1
    22    20     1    1
    23    23    28   ar
    24    24    25   ar
    25    26    27   ar
    26     1     6   ar
    27     2     7   ar
    28     3     4   ar
    29    15    19    2
    30    20    21    1
@<TRIPOS>MOLECULE
MolPort-020-298-488 MCULE-2685163120 PubChem-110269683
 28 30 0 0 0
SMALL
GASTEIGER

@<TRIPOS>ATOM
      1 C          12.7099   42.2050    6.4031 C.ar    1  UNL1        0.1357
      2 C          14.9451   42.9036    6.7528 C.ar    1  UNL1        0.1406
      3 C          14.0866   41.1131    8.0366 C.ar    1  UNL1        0.0641
      4 C          12.8598   41.2239    7.3825 C.ar    1  UNL1        0.0492
      5 C          16.0707   43.8115    6.4110 C.3     1  UNL1        0.0737
      6 N          13.7555   43.0248    6.1081 N.ar    1  UNL1       -0.2159
      7 N          15.1062   41.9528    7.7094 N.ar    1  UNL1       -0.2349
      8 C          14.2690   40.0669    9.0842 C.3     1  UNL1        0.0564
      9 C          13.2159   40.2052   10.1866 C.3     1  UNL1        0.0087
     10 C          13.5747   39.4219   11.4538 C.3     1  UNL1        0.0178
     11 C          14.7055   38.4277   11.2018 C.3     1  UNL1        0.0725
     12 C          15.6875   40.1129    9.6635 C.3     1  UNL1        0.0784
     13 N          15.9156   39.1233   10.7357 N.3     1  UNL1       -0.2647
     14 C          16.9293   38.1481   10.3165 C.3     1  UNL1        0.1587
     15 C          16.3816   37.0277    9.4667 C.2     1  UNL1        0.2421
     16 C          18.6158   35.8681    9.4736 C.3     1  UNL1        0.1149
     17 C          16.6946   34.8613    8.2406 C.3     1  UNL1        0.1149
     18 N          17.2219   35.9353    9.0659 N.am    1  UNL1       -0.2749
     19 O          15.1803   37.0712    9.0865 O.2     1  UNL1       -0.2734
     20 N          11.4540   42.3272    5.7249 N.pl3   1  UNL1       -0.2833
     21 H          11.2563   43.1967    5.3075 H       1  UNL1        0.1550
     22 C           9.6662   38.4412    3.3356 C.3     1  UNL1        0.0521
     23 C           9.5700   39.4168    4.4526 C.ar    1  UNL1        0.0608
     24 C          10.4584   41.3054    5.5958 C.ar    1  UNL1        0.1328
     25 C           9.4142   41.2528    6.5230 C.ar    1  UNL1        0.0344
     26 C           8.4386   40.2616    6.4027 C.ar    1  UNL1        0.0041
     27 C           8.5133   39.3353    5.3615 C.ar    1  UNL1        0.0148
     28 N          10.5105   40.3901    4.5871 N.ar    1  UNL1       -0.2349
@<TRIPOS>BOND
     1    22    23    1
     2    24    28   ar
     3    24    20    1
     4    25    26   ar
     5    27    23   ar
     6     2     6   ar
     7     3     7   ar
     8     4     1   ar
     9     8     3    1
    10     8     9    1
    11     9    10    1
    12    10    11    1
    13    11    13    1
    14    12    13    1
    15    12     8    1
    16    14    13    1
    17    14    15    1
    18    15    18   am
    19    16    18    1
    20    17    18    1
    21     5     2    1
    22    20     1    1
    23    23    28   ar
    24    24    25   ar
    25    26    27   ar
    26     1     6   ar
    27     2     7   ar
    28     3     4   ar
    29    15    19    2
    30    20    21    1
@<TRIPOS>MOLECULE
MolPort-020-298-488 MCULE-2685163120 PubChem-110269683
 28 30 0 0 0
SMALL
GASTEIGER

@<TRIPOS>ATOM
      1 C          12.8379   42.3740    6.3011 C.ar    1  UNL1        0.1357
      2 C          15.0859   43.0806    6.5339 C.ar    1  UNL1        0.1406
      3 C          14.2408   41.4335    8.0050 C.ar    1  UNL1        0.0641
      4 C          13.0010   41.4922    7.3688 C.ar    1  UNL1        0.0492
      5 C          16.2112   43.9389    6.0812 C.3     1  UNL1        0.0737
      6 N          13.8836   43.1501    5.9053 N.ar    1  UNL1       -0.2159
      7 N          15.2599   42.2266    7.5758 N.ar    1  UNL1       -0.2349
      8 C          14.4373   40.4933    9.1464 C.3     1  UNL1        0.0564
      9 C          15.9243   40.3254    9.4689 C.3     1  UNL1        0.0087
     10 C          16.2070   39.1084   10.3562 C.3     1  UNL1        0.0178
     11 C          14.9287   38.5581   10.9836 C.3     1  UNL1        0.0725
     12 C          13.7755   39.1402    8.8619 C.3     1  UNL1        0.0784
     13 N          13.9709   38.1528    9.9426 N.3     1  UNL1       -0.2647
     14 C          12.6806   37.8062   10.5502 C.3     1  UNL1        0.1587
     15 C          11.4918   38.4024    9.8370 C.2     1  UNL1        0.2421
     16 C          11.6172   40.4738   11.2617 C.3     1  UNL1        0.1149
     17 C           9.8410   40.2652    9.5220 C.3     1  UNL1        0.1149
     18 N          10.9911   39.6962   10.2047 N.am    1  UNL1       -0.2749
     19 O          10.9212   37.7408    8.9280 O.2     1  UNL1       -0.2734
     20 N          11.5687   42.4419    5.6404 N.pl3   1  UNL1       -0.2833
     21 H          11.3025   43.3172    5.2767 H       1  UNL1        0.1550
     22 C          10.4133   38.1910    3.4955 C.3     1  UNL1        0.0521
     23 C          10.0655   39.2935    4.4295 C.ar    1  UNL1        0.0608
     24 C          10.6498   41.3582    5.4583 C.ar    1  UNL1        0.1328
     25 C           9.4421   41.3657    6.1613 C.ar    1  UNL1        0.0344
     26 C           8.5401   40.3145    5.9874 C.ar    1  UNL1        0.0041
     27 C           8.8501   39.2693    5.1162 C.ar    1  UNL1        0.0148
     28 N          10.9308   40.3268    4.6127 N.ar    1  UNL1       -0.2349
@<TRIPOS>BOND
     1    22    23    1
     2    24    28   ar
     3    24    20    1
     4    25    26   ar
     5    27    23   ar
     6     2     6   ar
     7     3     7   ar
     8     4     1   ar
     9     8     3    1
    10     8     9    1
    11     9    10    1
    12    10    11    1
    13    11    13    1
    14    12    13    1
    15    12     8    1
    16    14    13    1
    17    14    15    1
    18    15    18   am
    19    16    18    1
    20    17    18    1
    21     5     2    1
    22    20     1    1
    23    23    28   ar
    24    24    25   ar
    25    26    27   ar
    26     1     6   ar
    27     2     7   ar
    28     3     4   ar
    29    15    19    2
    30    20    21    1
@<TRIPOS>MOLECULE
MolPort-020-298-488 MCULE-2685163120 PubChem-110269683
 28 30 0 0 0
SMALL
GASTEIGER

@<TRIPOS>ATOM
      1 C          12.6051   42.0185    6.5255 C.ar    1  UNL1        0.1357
      2 C          14.7747   42.7018    7.1834 C.ar    1  UNL1        0.1406
      3 C          13.8047   40.8075    8.2138 C.ar    1  UNL1        0.0641
      4 C          12.6585   40.9624    7.4343 C.ar    1  UNL1        0.0492
      5 C          15.9171   43.6420    7.0460 C.3     1  UNL1        0.0737
      6 N          13.6643   42.8666    6.4184 N.ar    1  UNL1       -0.2159
      7 N          14.8412   41.6778    8.0734 N.ar    1  UNL1       -0.2349
      8 C          13.8836   39.6812    9.1888 C.3     1  UNL1        0.0564
      9 C          13.3189   40.0940   10.5505 C.3     1  UNL1        0.0087
     10 C          13.7134   39.1307   11.6750 C.3     1  UNL1        0.0178
     11 C          14.2774   37.8227   11.1259 C.3     1  UNL1        0.0725
     12 C          15.3222   39.1678    9.3178 C.3     1  UNL1        0.0784
     13 N          15.4694   38.0758   10.3010 N.3     1  UNL1       -0.2647
     14 C          15.8888   36.8414    9.6268 C.3     1  UNL1        0.1587
     15 C          17.3460   36.5033    9.8267 C.2     1  UNL1        0.2421
     16 C          17.7861   38.7767   10.8137 C.3     1  UNL1        0.1149
     17 C          19.6525   37.1370   10.5836 C.3     1  UNL1        0.1149
     18 N          18.2478   37.4617   10.3994 N.am    1  UNL1       -0.2749
     19 O          17.7743   35.3755    9.4603 O.2     1  UNL1       -0.2734
     20 N          11.4327   42.1866    5.7198 N.pl3   1  UNL1       -0.2833
     21 H          11.2968   43.0717    5.3107 H       1  UNL1        0.1550
     22 C           7.0999   40.1480    6.7580 C.3     1  UNL1        0.0521
     23 C           8.3386   40.1821    5.9374 C.ar    1  UNL1        0.0608
     24 C          10.4389   41.1900    5.4523 C.ar    1  UNL1        0.1328
     25 C          10.6605   40.2674    4.4264 C.ar    1  UNL1        0.0344
     26 C           9.6981   39.2916    4.1612 C.ar    1  UNL1        0.0041
     27 C           8.5277   39.2450    4.9198 C.ar    1  UNL1        0.0148
     28 N           9.2883   41.1249    6.1801 N.ar    1  UNL1       -0.2349
@<TRIPOS>BOND
     1    22    23    1
     2    24    28   ar
     3    24    20    1
     4    25    26   ar
     5    27    23   ar
     6     2     6   ar
     7     3     7   ar
     8     4     1   ar
     9     8     3    1
    10     8     9    1
    11     9    10    1
    12    10    11    1
    13    11    13    1
    14    12    13    1
    15    12     8    1
    16    14    13    1
    17    14    15    1
    18    15    18   am
    19    16    18    1
    20    17    18    1
    21     5     2    1
    22    20     1    1
    23    23    28   ar
    24    24    25   ar
    25    26    27   ar
    26     1     6   ar
    27     2     7   ar
    28     3     4   ar
    29    15    19    2
    30    20    21    1
@<TRIPOS>MOLECULE
MolPort-020-298-488 MCULE-2685163120 PubChem-110269683
 28 30 0 0 0
SMALL
GASTEIGER

@<TRIPOS>ATOM
      1 C          17.0691   40.3201    9.6886 C.ar    1  UNL1        0.1357
      2 C          17.5694   38.1024   10.3506 C.ar    1  UNL1        0.1406
      3 C          15.3080   38.7397   10.0846 C.ar    1  UNL1        0.0641
      4 C          15.7064   40.0267    9.7237 C.ar    1  UNL1        0.0492
      5 C          18.5771   37.0639   10.6884 C.3     1  UNL1        0.0737
      6 N          17.9728   39.3519   10.0026 N.ar    1  UNL1       -0.2159
      7 N          16.2453   37.8017   10.3896 N.ar    1  UNL1       -0.2349
      8 C          13.8549   38.4042   10.1237 C.3     1  UNL1        0.0564
      9 C          13.6435   36.9139   10.4023 C.3     1  UNL1        0.0087
     10 C          12.2205   36.4446   10.0812 C.3     1  UNL1        0.0178
     11 C          11.2675   37.6218    9.8901 C.3     1  UNL1        0.0725
     12 C          13.1591   38.8298    8.8258 C.3     1  UNL1        0.0784
     13 N          11.7231   38.4869    8.7903 N.3     1  UNL1       -0.2647
     14 C          10.9123   39.7092    8.7397 C.3     1  UNL1        0.1587
     15 C           9.7441   39.6260    7.7880 C.2     1  UNL1        0.2421
     16 C           8.4800   41.3511    9.1155 C.3     1  UNL1        0.1149
     17 C           7.4452   40.3413    7.0821 C.3     1  UNL1        0.1149
     18 N           8.5726   40.4289    7.9953 N.am    1  UNL1       -0.2749
     19 O           9.7934   38.8218    6.8182 O.2     1  UNL1       -0.2734
     20 N          17.4893   41.6387    9.3190 N.pl3   1  UNL1       -0.2833
     21 H          18.2248   42.0341    9.8405 H       1  UNL1        0.1550
     22 C          13.7610   42.7155    6.3278 C.3     1  UNL1        0.0521
     23 C          15.1456   42.9791    6.7992 C.ar    1  UNL1        0.0608
     24 C          16.9417   42.4371    8.2631 C.ar    1  UNL1        0.1328
     25 C          17.7264   43.4448    7.6960 C.ar    1  UNL1        0.0344
     26 C          17.2010   44.2256    6.6649 C.ar    1  UNL1        0.0041
     27 C          15.9020   43.9942    6.2103 C.ar    1  UNL1        0.0148
     28 N          15.6758   42.2294    7.8026 N.ar    1  UNL1       -0.2349
@<TRIPOS>BOND
     1    22    23    1
     2    24    28   ar
     3    24    20    1
     4    25    26   ar
     5    27    23   ar
     6     2     6   ar
     7     3     7   ar
     8     4     1   ar
     9     8     3    1
    10     8     9    1
    11     9    10    1
    12    10    11    1
    13    11    13    1
    14    12    13    1
    15    12     8    1
    16    14    13    1
    17    14    15    1
    18    15    18   am
    19    16    18    1
    20    17    18    1
    21     5     2    1
    22    20     1    1
    23    23    28   ar
    24    24    25   ar
    25    26    27   ar
    26     1     6   ar
    27     2     7   ar
    28     3     4   ar
    29    15    19    2
    30    20    21    1
@<TRIPOS>MOLECULE
MolPort-020-298-488 MCULE-2685163120 PubChem-110269683
 28 30 0 0 0
SMALL
GASTEIGER

@<TRIPOS>ATOM
      1 C          13.3458   40.8778    8.6727 C.ar    1  UNL1        0.1357
      2 C          13.3700   39.8265   10.7942 C.ar    1  UNL1        0.1406
      3 C          11.4900   41.1193   10.1738 C.ar    1  UNL1        0.0641
      4 C          12.0846   41.4063    8.9453 C.ar    1  UNL1        0.0492
      5 C          14.0656   38.9724   11.7915 C.3     1  UNL1        0.0737
      6 N          13.9627   40.0985    9.6025 N.ar    1  UNL1       -0.2159
      7 N          12.1418   40.3345   11.0742 N.ar    1  UNL1       -0.2349
      8 C          10.1390   41.6713   10.4831 C.3     1  UNL1        0.0564
      9 C           9.6869   41.2605   11.8868 C.3     1  UNL1        0.0087
     10 C           8.1855   41.4676   12.1127 C.3     1  UNL1        0.0178
     11 C           7.5660   42.3409   11.0246 C.3     1  UNL1        0.0725
     12 C           9.1166   41.2435    9.4241 C.3     1  UNL1        0.0784
     13 N           7.7492   41.7286    9.6990 N.3     1  UNL1       -0.2647
     14 C           7.3224   42.6606    8.6485 C.3     1  UNL1        0.1587
     15 C           5.9611   43.2661    8.8880 C.2     1  UNL1        0.2421
     16 C           4.9001   40.9837    8.9203 C.3     1  UNL1        0.1149
     17 C           3.4885   43.0171    9.2331 C.3     1  UNL1        0.1149
     18 N           4.8000   42.4314    9.0105 N.am    1  UNL1       -0.2749
     19 O           5.8456   44.5199    8.9535 O.2     1  UNL1       -0.2734
     20 N          13.9654   41.1661    7.4137 N.pl3   1  UNL1       -0.2833
     21 H          13.8889   40.4795    6.7123 H       1  UNL1        0.1550
     22 C          17.9402   43.9877    7.9101 C.3     1  UNL1        0.0521
     23 C          16.6057   43.7459    7.3022 C.ar    1  UNL1        0.0608
     24 C          14.6859   42.3578    7.0777 C.ar    1  UNL1        0.1328
     25 C          14.1132   43.2701    6.1874 C.ar    1  UNL1        0.0344
     26 C          14.8078   44.4350    5.8569 C.ar    1  UNL1        0.0041
     27 C          16.0630   44.6784    6.4161 C.ar    1  UNL1        0.0148
     28 N          15.9130   42.6170    7.6115 N.ar    1  UNL1       -0.2349
@<TRIPOS>BOND
     1    22    23    1
     2    24    28   ar
     3    24    20    1
     4    25    26   ar
     5    27    23   ar
     6     2     6   ar
     7     3     7   ar
     8     4     1   ar
     9     8     3    1
    10     8     9    1
    11     9    10    1
    12    10    11    1
    13    11    13    1
    14    12    13    1
    15    12     8    1
    16    14    13    1
    17    14    15    1
    18    15    18   am
    19    16    18    1
    20    17    18    1
    21     5     2    1
    22    20     1    1
    23    23    28   ar
    24    24    25   ar
    25    26    27   ar
    26     1     6   ar
    27     2     7   ar
    28     3     4   ar
    29    15    19    2
    30    20    21    1
@<TRIPOS>MOLECULE
MolPort-020-298-488 MCULE-2685163120 PubChem-110269683
 28 30 0 0 0
SMALL
GASTEIGER

@<TRIPOS>ATOM
      1 C           8.2511   41.9466   10.9063 C.ar    1  UNL1        0.1357
      2 C           9.2381   41.3065   12.9613 C.ar    1  UNL1        0.1406
      3 C          10.4436   40.9736   10.9545 C.ar    1  UNL1        0.0641
      4 C           9.3868   41.5145   10.2224 C.ar    1  UNL1        0.0492
      5 C           9.1563   41.1954   14.4408 C.3     1  UNL1        0.0737
      6 N           8.1999   41.8340   12.2618 N.ar    1  UNL1       -0.2159
      7 N          10.3509   40.8809   12.3090 N.ar    1  UNL1       -0.2349
      8 C          11.6695   40.5097   10.2422 C.3     1  UNL1        0.0564
      9 C          12.6500   39.8465   11.2129 C.3     1  UNL1        0.0087
     10 C          14.0581   39.6976   10.6272 C.3     1  UNL1        0.0178
     11 C          14.0688   39.9258    9.1178 C.3     1  UNL1        0.0725
     12 C          12.3343   41.6656    9.4861 C.3     1  UNL1        0.0784
     13 N          13.5777   41.2743    8.7919 N.3     1  UNL1       -0.2647
     14 C          13.4123   41.4149    7.3404 C.3     1  UNL1        0.1587
     15 C          13.8787   42.7446    6.8003 C.2     1  UNL1        0.2421
     16 C          16.1776   42.3802    7.7588 C.3     1  UNL1        0.1149
     17 C          15.6687   44.4781    6.5077 C.3     1  UNL1        0.1149
     18 N          15.2239   43.1933    7.0218 N.am    1  UNL1       -0.2749
     19 O          13.0659   43.4756    6.1721 O.2     1  UNL1       -0.2734
     20 N           7.1601   42.5040   10.1641 N.pl3   1  UNL1       -0.2833
     21 H           6.4750   42.9904   10.6773 H       1  UNL1        0.1550
     22 C           6.4902   39.7948    6.1370 C.3     1  UNL1        0.0521
     23 C           6.6446   41.1276    6.7761 C.ar    1  UNL1        0.0608
     24 C           6.9704   42.4214    8.7466 C.ar    1  UNL1        0.1328
     25 C           6.9399   43.5991    7.9951 C.ar    1  UNL1        0.0344
     26 C           6.7580   43.5270    6.6130 C.ar    1  UNL1        0.0041
     27 C           6.6091   42.2845    5.9952 C.ar    1  UNL1        0.0148
     28 N           6.8229   41.2192    8.1213 N.ar    1  UNL1       -0.2349
@<TRIPOS>BOND
     1    22    23    1
     2    24    28   ar
     3    24    20    1
     4    25    26   ar
     5    27    23   ar
     6     2     6   ar
     7     3     7   ar
     8     4     1   ar
     9     8     3    1
    10     8     9    1
    11     9    10    1
    12    10    11    1
    13    11    13    1
    14    12    13    1
    15    12     8    1
    16    14    13    1
    17    14    15    1
    18    15    18   am
    19    16    18    1
    20    17    18    1
    21     5     2    1
    22    20     1    1
    23    23    28   ar
    24    24    25   ar
    25    26    27   ar
    26     1     6   ar
    27     2     7   ar
    28     3     4   ar
    29    15    19    2
    30    20    21    1
@<TRIPOS>MOLECULE
MolPort-020-298-488 MCULE-2685163120 PubChem-110269683
 28 30 0 0 0
SMALL
GASTEIGER

@<TRIPOS>ATOM
      1 C           8.3858   42.2868   10.5909 C.ar    1  UNL1        0.1357
      2 C           9.2398   41.4119   12.6187 C.ar    1  UNL1        0.1406
      3 C          10.6181   41.4143   10.6975 C.ar    1  UNL1        0.0641
      4 C           9.5947   42.0043    9.9560 C.ar    1  UNL1        0.0492
      5 C           9.0465   41.0932   14.0572 C.3     1  UNL1        0.0737
      6 N           8.2330   41.9850   11.9093 N.ar    1  UNL1       -0.2159
      7 N          10.4231   41.1306   12.0140 N.ar    1  UNL1       -0.2349
      8 C          11.9209   41.1083   10.0381 C.3     1  UNL1        0.0564
      9 C          12.0412   41.8368    8.6971 C.3     1  UNL1        0.0087
     10 C          13.1609   41.2761    7.8138 C.3     1  UNL1        0.0178
     11 C          14.1008   40.3678    8.6025 C.3     1  UNL1        0.0725
     12 C          12.1064   39.5964    9.8664 C.3     1  UNL1        0.0784
     13 N          13.3637   39.2336    9.1820 N.3     1  UNL1       -0.2647
     14 C          14.2335   38.4765   10.0900 C.3     1  UNL1        0.1587
     15 C          14.9622   37.3349    9.4243 C.2     1  UNL1        0.2421
     16 C          13.0554   35.7680    9.9192 C.3     1  UNL1        0.1149
     17 C          15.0787   34.9283    8.7250 C.3     1  UNL1        0.1149
     18 N          14.3717   36.0284    9.3594 N.am    1  UNL1       -0.2749
     19 O          16.1120   37.5313    8.9459 O.2     1  UNL1       -0.2734
     20 N           7.3281   42.8929    9.8387 N.pl3   1  UNL1       -0.2833
     21 H           7.5757   43.6344    9.2402 H       1  UNL1        0.1550
     22 C           3.7726   39.9671   11.5132 C.3     1  UNL1        0.0521
     23 C           4.2000   41.1158   10.6727 C.ar    1  UNL1        0.0608
     24 C           5.9444   42.5235    9.8739 C.ar    1  UNL1        0.1328
     25 C           5.0271   43.2509    9.1110 C.ar    1  UNL1        0.0344
     26 C           3.6774   42.8957    9.1379 C.ar    1  UNL1        0.0041
     27 C           3.2568   41.8211    9.9228 C.ar    1  UNL1        0.0148
     28 N           5.5104   41.4778   10.6328 N.ar    1  UNL1       -0.2349
@<TRIPOS>BOND
     1    22    23    1
     2    24    28   ar
     3    24    20    1
     4    25    26   ar
     5    27    23   ar
     6     2     6   ar
     7     3     7   ar
     8     4     1   ar
     9     8     3    1
    10     8     9    1
    11     9    10    1
    12    10    11    1
    13    11    13    1
    14    12    13    1
    15    12     8    1
    16    14    13    1
    17    14    15    1
    18    15    18   am
    19    16    18    1
    20    17    18    1
    21     5     2    1
    22    20     1    1
    23    23    28   ar
    24    24    25   ar
    25    26    27   ar
    26     1     6   ar
    27     2     7   ar
    28     3     4   ar
    29    15    19    2
    30    20    21    1
