@<TRIPOS>MOLECULE
MolPort-003-871-640 60917 CSC048446353 LN01829905 MCULE-2085106535 PubChem-690635 ZINC000000060917 ZINC00060917
 23 25 0 0 0
SMALL
GASTEIGER

@<TRIPOS>ATOM
      1 C          11.3053   41.0273    7.0196 C.ar    1  UNL1        0.0536
      2 C          10.0885   41.7123    6.9312 C.ar    1  UNL1        0.0516
      3 C           8.8732   41.0287    7.0401 C.ar    1  UNL1        0.1396
      4 C           8.8795   39.6389    7.2381 C.ar    1  UNL1        0.0370
      5 C          10.0893   38.9469    7.3277 C.ar    1  UNL1        0.0044
      6 C          11.2981   39.6388    7.2190 C.ar    1  UNL1        0.0149
      7 C          13.7473   41.5407    7.6187 C.2     1  UNL1        0.2522
      8 O          13.8353   40.6028    8.4560 O.2     1  UNL1       -0.2697
      9 N          12.5254   41.7720    6.9028 N.am    1  UNL1       -0.2802
     10 H          12.5245   42.5210    6.2639 H       1  UNL1        0.1552
     11 C          18.3035   43.6220    7.7654 C.3     1  UNL1        0.0725
     12 C          16.8872   43.3232    7.4266 C.ar    1  UNL1        0.1230
     13 C          16.1423   42.2968    7.9805 C.ar    1  UNL1        0.0402
     14 C          14.9064   42.4136    7.3667 C.ar    1  UNL1        0.0866
     15 C          14.9872   43.4872    6.4960 C.ar    1  UNL1        0.1271
     16 C          13.9073   44.0047    5.6096 C.3     1  UNL1        0.0726
     17 O          16.1857   44.0099    6.5555 O.2     1  UNL1       -0.4619
     18 O           7.6791   41.7517    6.9437 O.3     1  UNL1       -0.4791
     19 C           7.4718   43.0043    7.5876 C.3     1  UNL1        0.1659
     20 C           6.7600   42.7835    8.9109 C.3     1  UNL1        0.0435
     21 C           5.3796   43.3877    8.7668 C.3     1  UNL1        0.0038
     22 C           5.5079   44.4235    7.6767 C.3     1  UNL1        0.0038
     23 C           6.5630   43.8808    6.7404 C.3     1  UNL1        0.0435
@<TRIPOS>BOND
     1    11    12    1
     2    12    17   ar
     3    13    14   ar
     4    14     7    1
     5     7     9   am
     6     2     3   ar
     7     3    18    1
     8    19    18    1
     9    19    20    1
    10    20    21    1
    11    21    22    1
    12    22    23    1
    13    23    19    1
    14     4     5   ar
    15     6     1   ar
    16    15    17   ar
    17    16    15    1
    18     9     1    1
    19    12    13   ar
    20    14    15   ar
    21     7     8    2
    22     1     2   ar
    23     3     4   ar
    24     5     6   ar
    25     9    10    1
@<TRIPOS>MOLECULE
MolPort-003-871-640 60917 CSC048446353 LN01829905 MCULE-2085106535 PubChem-690635 ZINC000000060917 ZINC00060917
 23 25 0 0 0
SMALL
GASTEIGER

@<TRIPOS>ATOM
      1 C          12.3550   40.4442   10.0919 C.ar    1  UNL1        0.0536
      2 C          12.7859   41.0733    8.9188 C.ar    1  UNL1        0.0516
      3 C          14.1261   41.0103    8.5240 C.ar    1  UNL1        0.1396
      4 C          15.0463   40.3083    9.3186 C.ar    1  UNL1        0.0370
      5 C          14.6252   39.6773   10.4911 C.ar    1  UNL1        0.0044
      6 C          13.2841   39.7447   10.8764 C.ar    1  UNL1        0.0149
      7 C          10.2075   41.7368   10.6429 C.2     1  UNL1        0.2522
      8 O          10.7407   42.8688   10.4917 O.2     1  UNL1       -0.2697
      9 N          10.9706   40.5361   10.4546 N.am    1  UNL1       -0.2802
     10 H          10.4932   39.6856   10.5886 H       1  UNL1        0.1552
     11 C           5.2001   41.6436   10.4735 C.3     1  UNL1        0.0725
     12 C           6.6077   41.5950   10.9492 C.ar    1  UNL1        0.1230
     13 C           7.7200   41.7632   10.1431 C.ar    1  UNL1        0.0402
     14 C           8.7867   41.6364   11.0171 C.ar    1  UNL1        0.0866
     15 C           8.2542   41.4036   12.2739 C.ar    1  UNL1        0.1271
     16 C           9.0086   41.2002   13.5426 C.3     1  UNL1        0.0726
     17 O           6.9476   41.3846   12.1992 O.2     1  UNL1       -0.4619
     18 O          14.5153   41.6553    7.3450 O.3     1  UNL1       -0.4791
     19 C          14.6304   43.0697    7.2314 C.3     1  UNL1        0.1659
     20 C          14.0275   43.5242    5.9136 C.3     1  UNL1        0.0435
     21 C          15.1730   44.0348    5.0659 C.3     1  UNL1        0.0038
     22 C          16.2516   44.4280    6.0457 C.3     1  UNL1        0.0038
     23 C          16.0964   43.4723    7.2062 C.3     1  UNL1        0.0435
@<TRIPOS>BOND
     1    11    12    1
     2    12    17   ar
     3    13    14   ar
     4    14     7    1
     5     7     9   am
     6     2     3   ar
     7     3    18    1
     8    19    18    1
     9    19    20    1
    10    20    21    1
    11    21    22    1
    12    22    23    1
    13    23    19    1
    14     4     5   ar
    15     6     1   ar
    16    15    17   ar
    17    16    15    1
    18     9     1    1
    19    12    13   ar
    20    14    15   ar
    21     7     8    2
    22     1     2   ar
    23     3     4   ar
    24     5     6   ar
    25     9    10    1
@<TRIPOS>MOLECULE
MolPort-003-871-640 60917 CSC048446353 LN01829905 MCULE-2085106535 PubChem-690635 ZINC000000060917 ZINC00060917
 23 25 0 0 0
SMALL
GASTEIGER

@<TRIPOS>ATOM
      1 C           6.5901   43.4683    9.0308 C.ar    1  UNL1        0.0536
      2 C           5.3252   43.0417    9.4498 C.ar    1  UNL1        0.0516
      3 C           4.1654   43.5552    8.8605 C.ar    1  UNL1        0.1396
      4 C           4.2770   44.5114    7.8386 C.ar    1  UNL1        0.0370
      5 C           5.5354   44.9432    7.4139 C.ar    1  UNL1        0.0044
      6 C           6.6881   44.4233    8.0078 C.ar    1  UNL1        0.0149
      7 C           8.3214   41.6166    9.4307 C.2     1  UNL1        0.2522
      8 O           7.8056   40.8270    8.5946 O.2     1  UNL1       -0.2697
      9 N           7.7500   42.9120    9.6646 N.am    1  UNL1       -0.2802
     10 H           8.2021   43.4788   10.3307 H       1  UNL1        0.1552
     11 C          12.9607   40.1392   10.6164 C.3     1  UNL1        0.0725
     12 C          11.5405   40.5704   10.7016 C.ar    1  UNL1        0.1230
     13 C          10.7387   40.8673    9.6134 C.ar    1  UNL1        0.0402
     14 C           9.5233   41.2131   10.1800 C.ar    1  UNL1        0.0866
     15 C           9.6710   41.1033   11.5524 C.ar    1  UNL1        0.1271
     16 C           8.6352   41.3719   12.5890 C.3     1  UNL1        0.0726
     17 O          10.8898   40.7166   11.8319 O.2     1  UNL1       -0.4619
     18 O           2.9203   43.1030    9.3108 O.3     1  UNL1       -0.4791
     19 C           2.7041   41.7905    9.8178 C.3     1  UNL1        0.1659
     20 C           2.4002   41.8636   11.3040 C.3     1  UNL1        0.0435
     21 C           3.5710   41.2226   12.0180 C.3     1  UNL1        0.0038
     22 C           4.1977   40.2949   11.0058 C.3     1  UNL1        0.0038
     23 C           3.9688   40.9598    9.6679 C.3     1  UNL1        0.0435
@<TRIPOS>BOND
     1    11    12    1
     2    12    17   ar
     3    13    14   ar
     4    14     7    1
     5     7     9   am
     6     2     3   ar
     7     3    18    1
     8    19    18    1
     9    19    20    1
    10    20    21    1
    11    21    22    1
    12    22    23    1
    13    23    19    1
    14     4     5   ar
    15     6     1   ar
    16    15    17   ar
    17    16    15    1
    18     9     1    1
    19    12    13   ar
    20    14    15   ar
    21     7     8    2
    22     1     2   ar
    23     3     4   ar
    24     5     6   ar
    25     9    10    1
@<TRIPOS>MOLECULE
MolPort-003-871-640 60917 CSC048446353 LN01829905 MCULE-2085106535 PubChem-690635 ZINC000000060917 ZINC00060917
 23 25 0 0 0
SMALL
GASTEIGER

@<TRIPOS>ATOM
      1 C          11.9799   41.0615    9.0396 C.ar    1  UNL1        0.0536
      2 C          12.8061   41.6301    8.0640 C.ar    1  UNL1        0.0516
      3 C          14.1903   41.4320    8.0947 C.ar    1  UNL1        0.1396
      4 C          14.7527   40.6547    9.1196 C.ar    1  UNL1        0.0370
      5 C          13.9358   40.0833   10.0976 C.ar    1  UNL1        0.0044
      6 C          12.5541   40.2857   10.0577 C.ar    1  UNL1        0.0149
      7 C           9.8559   42.4447    9.4410 C.2     1  UNL1        0.2522
      8 O          10.4696   43.3966    9.9940 O.2     1  UNL1       -0.2697
      9 N          10.5665   41.2923    8.9655 N.am    1  UNL1       -0.2802
     10 H          10.0265   40.5852    8.5438 H       1  UNL1        0.1552
     11 C           5.0295   41.1942    8.9362 C.3     1  UNL1        0.0725
     12 C           6.2922   41.9695    9.0574 C.ar    1  UNL1        0.1230
     13 C           7.5496   41.4121    9.2104 C.ar    1  UNL1        0.0402
     14 C           8.3936   42.5079    9.2774 C.ar    1  UNL1        0.0866
     15 C           7.6004   43.6370    9.1621 C.ar    1  UNL1        0.1271
     16 C           8.0543   45.0559    9.1780 C.3     1  UNL1        0.0726
     17 O           6.3477   43.2805    9.0318 O.2     1  UNL1       -0.4619
     18 O          14.9802   42.0204    7.1010 O.3     1  UNL1       -0.4791
     19 C          15.5566   43.3159    7.2283 C.3     1  UNL1        0.1659
     20 C          15.8130   43.8956    5.8482 C.3     1  UNL1        0.0435
     21 C          17.3156   43.9767    5.6843 C.3     1  UNL1        0.0038
     22 C          17.8688   44.0319    7.0875 C.3     1  UNL1        0.0038
     23 C          16.9060   43.2193    7.9223 C.3     1  UNL1        0.0435
@<TRIPOS>BOND
     1    11    12    1
     2    12    17   ar
     3    13    14   ar
     4    14     7    1
     5     7     9   am
     6     2     3   ar
     7     3    18    1
     8    19    18    1
     9    19    20    1
    10    20    21    1
    11    21    22    1
    12    22    23    1
    13    23    19    1
    14     4     5   ar
    15     6     1   ar
    16    15    17   ar
    17    16    15    1
    18     9     1    1
    19    12    13   ar
    20    14    15   ar
    21     7     8    2
    22     1     2   ar
    23     3     4   ar
    24     5     6   ar
    25     9    10    1
@<TRIPOS>MOLECULE
MolPort-003-871-640 60917 CSC048446353 LN01829905 MCULE-2085106535 PubChem-690635 ZINC000000060917 ZINC00060917
 23 25 0 0 0
SMALL
GASTEIGER

@<TRIPOS>ATOM
      1 C           8.6489   41.6190   10.2260 C.ar    1  UNL1        0.0536
      2 C           9.4824   41.1356    9.2115 C.ar    1  UNL1        0.0516
      3 C          10.7654   40.6621    9.5045 C.ar    1  UNL1        0.1396
      4 C          11.2184   40.6763   10.8332 C.ar    1  UNL1        0.0370
      5 C          10.3933   41.1570   11.8524 C.ar    1  UNL1        0.0044
      6 C           9.1128   41.6266   11.5499 C.ar    1  UNL1        0.0149
      7 C           7.0228   43.3085    9.1832 C.2     1  UNL1        0.2522
      8 O           7.9345   44.0948    8.8101 O.2     1  UNL1       -0.2697
      9 N           7.3413   42.0931    9.8763 N.am    1  UNL1       -0.2802
     10 H           6.5820   41.5245   10.1396 H       1  UNL1        0.1552
     11 C           2.8515   45.3375    7.2870 C.3     1  UNL1        0.0725
     12 C           3.7945   44.5129    8.0875 C.ar    1  UNL1        0.1230
     13 C           5.1735   44.5632    7.9815 C.ar    1  UNL1        0.0402
     14 C           5.6128   43.6334    8.9090 C.ar    1  UNL1        0.0866
     15 C           4.4857   43.0922    9.5040 C.ar    1  UNL1        0.1271
     16 C           4.4475   42.0484   10.5664 C.3     1  UNL1        0.0726
     17 O           3.4136   43.6398    8.9902 O.2     1  UNL1       -0.4619
     18 O          11.5672   40.1895    8.4599 O.3     1  UNL1       -0.4791
     19 C          11.7575   38.8051    8.1879 C.3     1  UNL1        0.1659
     20 C          10.5764   38.0151    8.7240 C.3     1  UNL1        0.0435
     21 C          11.1003   37.1756    9.8695 C.3     1  UNL1        0.0038
     22 C          12.5785   37.0193    9.6076 C.3     1  UNL1        0.0038
     23 C          12.9927   38.2969    8.9146 C.3     1  UNL1        0.0435
@<TRIPOS>BOND
     1    11    12    1
     2    12    17   ar
     3    13    14   ar
     4    14     7    1
     5     7     9   am
     6     2     3   ar
     7     3    18    1
     8    19    18    1
     9    19    20    1
    10    20    21    1
    11    21    22    1
    12    22    23    1
    13    23    19    1
    14     4     5   ar
    15     6     1   ar
    16    15    17   ar
    17    16    15    1
    18     9     1    1
    19    12    13   ar
    20    14    15   ar
    21     7     8    2
    22     1     2   ar
    23     3     4   ar
    24     5     6   ar
    25     9    10    1
@<TRIPOS>MOLECULE
MolPort-003-871-640 60917 CSC048446353 LN01829905 MCULE-2085106535 PubChem-690635 ZINC000000060917 ZINC00060917
 23 25 0 0 0
SMALL
GASTEIGER

@<TRIPOS>ATOM
      1 C          11.0413   40.4846    5.8929 C.ar    1  UNL1        0.0536
      2 C          10.0702   40.5380    6.8988 C.ar    1  UNL1        0.0516
      3 C           8.7555   40.1332    6.6461 C.ar    1  UNL1        0.1396
      4 C           8.4107   39.6709    5.3662 C.ar    1  UNL1        0.0370
      5 C           9.3734   39.6140    4.3561 C.ar    1  UNL1        0.0044
      6 C          10.6844   40.0193    4.6186 C.ar    1  UNL1        0.0149
      7 C          12.7597   41.9606    7.0990 C.2     1  UNL1        0.2522
      8 O          11.8884   42.6263    7.7205 O.2     1  UNL1       -0.2697
      9 N          12.3760   40.9096    6.2004 N.am    1  UNL1       -0.2802
     10 H          13.1063   40.4296    5.7471 H       1  UNL1        0.1552
     11 C          17.4699   41.9579    8.8095 C.3     1  UNL1        0.0725
     12 C          16.2400   42.2615    8.0315 C.ar    1  UNL1        0.1230
     13 C          15.0082   41.6653    8.2373 C.ar    1  UNL1        0.0402
     14 C          14.1891   42.2584    7.2911 C.ar    1  UNL1        0.0866
     15 C          14.9704   43.1598    6.5880 C.ar    1  UNL1        0.1271
     16 C          14.5344   44.0394    5.4673 C.3     1  UNL1        0.0726
     17 O          16.1927   43.1375    7.0555 O.2     1  UNL1       -0.4619
     18 O           7.8149   40.2049    7.6795 O.3     1  UNL1       -0.4791
     19 C           7.3819   41.4323    8.2561 C.3     1  UNL1        0.1659
     20 C           8.3175   41.8198    9.3879 C.3     1  UNL1        0.0435
     21 C           7.5176   41.7103   10.6684 C.3     1  UNL1        0.0038
     22 C           6.0744   41.8600   10.2527 C.3     1  UNL1        0.0038
     23 C           6.0000   41.2615    8.8669 C.3     1  UNL1        0.0435
@<TRIPOS>BOND
     1    11    12    1
     2    12    17   ar
     3    13    14   ar
     4    14     7    1
     5     7     9   am
     6     2     3   ar
     7     3    18    1
     8    19    18    1
     9    19    20    1
    10    20    21    1
    11    21    22    1
    12    22    23    1
    13    23    19    1
    14     4     5   ar
    15     6     1   ar
    16    15    17   ar
    17    16    15    1
    18     9     1    1
    19    12    13   ar
    20    14    15   ar
    21     7     8    2
    22     1     2   ar
    23     3     4   ar
    24     5     6   ar
    25     9    10    1
@<TRIPOS>MOLECULE
MolPort-003-871-640 60917 CSC048446353 LN01829905 MCULE-2085106535 PubChem-690635 ZINC000000060917 ZINC00060917
 23 25 0 0 0
SMALL
GASTEIGER

@<TRIPOS>ATOM
      1 C           7.8611   41.9891    8.5220 C.ar    1  UNL1        0.0536
      2 C           6.7959   42.3879    9.3368 C.ar    1  UNL1        0.0516
      3 C           5.7901   43.2239    8.8412 C.ar    1  UNL1        0.1396
      4 C           5.8558   43.6673    7.5108 C.ar    1  UNL1        0.0370
      5 C           6.9154   43.2744    6.6902 C.ar    1  UNL1        0.0044
      6 C           7.9145   42.4379    7.1939 C.ar    1  UNL1        0.0149
      7 C          10.2864   41.2325    8.8843 C.2     1  UNL1        0.2522
      8 O          10.7756   42.1471    8.1683 O.2     1  UNL1       -0.2697
      9 N           8.8678   41.1304    9.0749 N.am    1  UNL1       -0.2802
     10 H           8.5523   40.3929    9.6456 H       1  UNL1        0.1552
     11 C          13.8468   39.1281   11.7140 C.3     1  UNL1        0.0725
     12 C          12.7210   39.3328   10.7649 C.ar    1  UNL1        0.1230
     13 C          12.1764   40.5627   10.4392 C.ar    1  UNL1        0.0402
     14 C          11.1734   40.2538    9.5358 C.ar    1  UNL1        0.0866
     15 C          11.1798   38.8780    9.3792 C.ar    1  UNL1        0.1271
     16 C          10.2805   38.0717    8.5068 C.3     1  UNL1        0.0726
     17 O          12.1178   38.3565   10.1284 O.2     1  UNL1       -0.4619
     18 O           4.7439   43.6007    9.6904 O.3     1  UNL1       -0.4791
     19 C           3.6681   42.7340   10.0344 C.3     1  UNL1        0.1659
     20 C           3.8257   42.2753   11.4736 C.3     1  UNL1        0.0435
     21 C           4.1224   40.7917   11.4258 C.3     1  UNL1        0.0038
     22 C           3.5585   40.3130   10.1103 C.3     1  UNL1        0.0038
     23 C           3.7085   41.4851    9.1680 C.3     1  UNL1        0.0435
@<TRIPOS>BOND
     1    11    12    1
     2    12    17   ar
     3    13    14   ar
     4    14     7    1
     5     7     9   am
     6     2     3   ar
     7     3    18    1
     8    19    18    1
     9    19    20    1
    10    20    21    1
    11    21    22    1
    12    22    23    1
    13    23    19    1
    14     4     5   ar
    15     6     1   ar
    16    15    17   ar
    17    16    15    1
    18     9     1    1
    19    12    13   ar
    20    14    15   ar
    21     7     8    2
    22     1     2   ar
    23     3     4   ar
    24     5     6   ar
    25     9    10    1
@<TRIPOS>MOLECULE
MolPort-003-871-640 60917 CSC048446353 LN01829905 MCULE-2085106535 PubChem-690635 ZINC000000060917 ZINC00060917
 23 25 0 0 0
SMALL
GASTEIGER

@<TRIPOS>ATOM
      1 C          12.8639   39.2395    8.7914 C.ar    1  UNL1        0.0536
      2 C          13.9664   40.0815    8.6093 C.ar    1  UNL1        0.0516
      3 C          14.8766   40.3030    9.6478 C.ar    1  UNL1        0.1396
      4 C          14.6762   39.6727   10.8861 C.ar    1  UNL1        0.0370
      5 C          13.5785   38.8306   11.0770 C.ar    1  UNL1        0.0044
      6 C          12.6756   38.6145   10.0332 C.ar    1  UNL1        0.0149
      7 C          10.9231   39.9370    7.2641 C.2     1  UNL1        0.2522
      8 O          10.7266   41.0305    7.8592 O.2     1  UNL1       -0.2697
      9 N          11.9587   39.0428    7.6966 N.am    1  UNL1       -0.2802
     10 H          12.0583   38.2057    7.1880 H       1  UNL1        0.1552
     11 C           9.3934   38.4392    2.7332 C.3     1  UNL1        0.0725
     12 C           9.4139   38.9144    4.1417 C.ar    1  UNL1        0.1230
     13 C          10.5609   39.1404    4.8823 C.ar    1  UNL1        0.0402
     14 C          10.0851   39.5653    6.1115 C.ar    1  UNL1        0.0866
     15 C           8.7027   39.5672    6.0313 C.ar    1  UNL1        0.1271
     16 C           7.7438   39.9500    7.1054 C.3     1  UNL1        0.0726
     17 O           8.3328   39.1726    4.8394 O.2     1  UNL1       -0.4619
     18 O          15.9644   41.1542    9.4242 O.3     1  UNL1       -0.4791
     19 C          16.2831   41.6928    8.1455 C.3     1  UNL1        0.1659
     20 C          17.6974   42.2459    8.1655 C.3     1  UNL1        0.0435
     21 C          17.5775   43.7483    8.0254 C.3     1  UNL1        0.0038
     22 C          16.2492   43.9823    7.3479 C.3     1  UNL1        0.0038
     23 C          15.3598   42.8581    7.8269 C.3     1  UNL1        0.0435
@<TRIPOS>BOND
     1    11    12    1
     2    12    17   ar
     3    13    14   ar
     4    14     7    1
     5     7     9   am
     6     2     3   ar
     7     3    18    1
     8    19    18    1
     9    19    20    1
    10    20    21    1
    11    21    22    1
    12    22    23    1
    13    23    19    1
    14     4     5   ar
    15     6     1   ar
    16    15    17   ar
    17    16    15    1
    18     9     1    1
    19    12    13   ar
    20    14    15   ar
    21     7     8    2
    22     1     2   ar
    23     3     4   ar
    24     5     6   ar
    25     9    10    1
@<TRIPOS>MOLECULE
MolPort-003-871-640 60917 CSC048446353 LN01829905 MCULE-2085106535 PubChem-690635 ZINC000000060917 ZINC00060917
 23 25 0 0 0
SMALL
GASTEIGER

@<TRIPOS>ATOM
      1 C          10.8282   40.9775    5.9034 C.ar    1  UNL1        0.0536
      2 C           9.7728   41.4428    6.6954 C.ar    1  UNL1        0.0516
      3 C           8.4830   40.9229    6.5460 C.ar    1  UNL1        0.1396
      4 C           8.2493   39.9245    5.5872 C.ar    1  UNL1        0.0370
      5 C           9.2967   39.4540    4.7922 C.ar    1  UNL1        0.0044
      6 C          10.5819   39.9785    4.9499 C.ar    1  UNL1        0.0149
      7 C          12.9594   41.4238    7.2617 C.2     1  UNL1        0.2522
      8 O          12.5652   40.7735    8.2669 O.2     1  UNL1       -0.2697
      9 N          12.1333   41.5407    6.0942 N.am    1  UNL1       -0.2802
     10 H          12.5013   42.0626    5.3450 H       1  UNL1        0.1552
     11 C          16.8152   44.4714    6.2834 C.3     1  UNL1        0.0725
     12 C          15.9617   43.3972    6.8559 C.ar    1  UNL1        0.1230
     13 C          14.6512   43.1489    6.4869 C.ar    1  UNL1        0.0402
     14 C          14.2807   42.0741    7.2776 C.ar    1  UNL1        0.0866
     15 C          15.3767   41.7504    8.0595 C.ar    1  UNL1        0.1271
     16 C          15.4648   40.6598    9.0707 C.3     1  UNL1        0.0726
     17 O          16.3664   42.5611    7.7829 O.2     1  UNL1       -0.4619
     18 O           7.4558   41.4179    7.3568 O.3     1  UNL1       -0.4791
     19 C           7.3596   42.7836    7.7469 C.3     1  UNL1        0.1659
     20 C           6.5776   42.8874    9.0446 C.3     1  UNL1        0.0435
     21 C           5.2767   43.5864    8.7123 C.3     1  UNL1        0.0038
     22 C           5.5577   44.3805    7.4600 C.3     1  UNL1        0.0038
     23 C           6.5837   43.5699    6.7020 C.3     1  UNL1        0.0435
@<TRIPOS>BOND
     1    11    12    1
     2    12    17   ar
     3    13    14   ar
     4    14     7    1
     5     7     9   am
     6     2     3   ar
     7     3    18    1
     8    19    18    1
     9    19    20    1
    10    20    21    1
    11    21    22    1
    12    22    23    1
    13    23    19    1
    14     4     5   ar
    15     6     1   ar
    16    15    17   ar
    17    16    15    1
    18     9     1    1
    19    12    13   ar
    20    14    15   ar
    21     7     8    2
    22     1     2   ar
    23     3     4   ar
    24     5     6   ar
    25     9    10    1
@<TRIPOS>MOLECULE
MolPort-003-871-640 60917 CSC048446353 LN01829905 MCULE-2085106535 PubChem-690635 ZINC000000060917 ZINC00060917
 23 25 0 0 0
SMALL
GASTEIGER

@<TRIPOS>ATOM
      1 C           9.0741   42.2338    9.4168 C.ar    1  UNL1        0.0536
      2 C           9.6345   41.0499    8.9250 C.ar    1  UNL1        0.0516
      3 C          11.0110   40.9504    8.6977 C.ar    1  UNL1        0.1396
      4 C          11.8353   42.0548    8.9655 C.ar    1  UNL1        0.0370
      5 C          11.2846   43.2406    9.4566 C.ar    1  UNL1        0.0044
      6 C           9.9088   43.3298    9.6817 C.ar    1  UNL1        0.0149
      7 C           6.6893   42.9838    8.8370 C.2     1  UNL1        0.2522
      8 O           7.0443   43.6408    7.8217 O.2     1  UNL1       -0.2697
      9 N           7.6576   42.2872    9.6347 N.am    1  UNL1       -0.2802
     10 H           7.3132   41.7938   10.4139 H       1  UNL1        0.1552
     11 C           2.3592   41.7380   11.0301 C.3     1  UNL1        0.0725
     12 C           3.3804   42.3875   10.1669 C.ar    1  UNL1        0.1230
     13 C           4.7284   42.0743   10.1661 C.ar    1  UNL1        0.0402
     14 C           5.2673   42.9256    9.2160 C.ar    1  UNL1        0.0866
     15 C           4.2234   43.6846    8.7144 C.ar    1  UNL1        0.1271
     16 C           4.3067   44.7414    7.6676 C.3     1  UNL1        0.0726
     17 O           3.1075   43.3381    9.3042 O.2     1  UNL1       -0.4619
     18 O          11.5301   39.7489    8.2032 O.3     1  UNL1       -0.4791
     19 C          12.5303   38.9946    8.8794 C.3     1  UNL1        0.1659
     20 C          12.1363   38.8189   10.3355 C.3     1  UNL1        0.0435
     21 C          13.1325   39.6130   11.1531 C.3     1  UNL1        0.0038
     22 C          14.3653   39.7189   10.2889 C.3     1  UNL1        0.0038
     23 C          13.8489   39.7516    8.8689 C.3     1  UNL1        0.0435
@<TRIPOS>BOND
     1    11    12    1
     2    12    17   ar
     3    13    14   ar
     4    14     7    1
     5     7     9   am
     6     2     3   ar
     7     3    18    1
     8    19    18    1
     9    19    20    1
    10    20    21    1
    11    21    22    1
    12    22    23    1
    13    23    19    1
    14     4     5   ar
    15     6     1   ar
    16    15    17   ar
    17    16    15    1
    18     9     1    1
    19    12    13   ar
    20    14    15   ar
    21     7     8    2
    22     1     2   ar
    23     3     4   ar
    24     5     6   ar
    25     9    10    1
