@<TRIPOS>MOLECULE
Molport-008-272-750 MCULE-6633283457 PubChem-46951643
 26 29 0 0 0
SMALL
GASTEIGER

@<TRIPOS>ATOM
      1 C          11.1571   42.0016    6.9381 C.2     1  UNL1        0.2590
      2 O          11.2967   42.1225    8.1834 O.2     1  UNL1       -0.2717
      3 N          12.2503   42.2380    6.0414 N.am    1  UNL1       -0.2619
      4 H          12.0741   42.1031    5.0822 H       1  UNL1        0.1568
      5 C           9.8213   41.6110    6.3904 C.3     1  UNL1        0.2131
      6 C           9.9091   40.4022    5.4758 C.ar    1  UNL1        0.0095
      7 C          10.9919   40.2153    4.6030 C.ar    1  UNL1       -0.0018
      8 C          11.0102   39.1254    3.7281 C.ar    1  UNL1       -0.0003
      9 C           9.9399   38.2267    3.7066 C.ar    1  UNL1       -0.0003
     10 C           8.8435   38.4223    4.5511 C.ar    1  UNL1       -0.0044
     11 C           8.8159   39.5154    5.4224 C.ar    1  UNL1       -0.0209
     12 C           7.6335   39.7201    6.3222 C.3     1  UNL1        0.0582
     13 C           7.6613   41.1329    6.9066 C.3     1  UNL1        0.1478
     14 O           8.9286   41.3852    7.4613 O.3     1  UNL1       -0.3424
     15 C          16.5447   42.0314    8.2938 C.ar    1  UNL1        0.1566
     16 C          15.5440   42.5268    7.4521 C.ar    1  UNL1        0.1230
     17 C          15.7494   43.6906    6.7256 C.ar    1  UNL1        0.0527
     18 C          16.9384   44.4104    6.7942 C.ar    1  UNL1        0.0083
     19 C          17.9521   43.9246    7.6331 C.ar    1  UNL1        0.0037
     20 C          17.7590   42.7451    8.3768 C.ar    1  UNL1        0.0385
     21 C          13.5736   42.6508    6.4022 C.ar    1  UNL1        0.1657
     22 S          14.3801   44.0261    5.8175 S.2     1  UNL1       -0.0513
     23 N          14.3308   41.9426    7.2740 N.ar    1  UNL1       -0.2209
     24 O          16.3268   40.8533    9.0191 O.3     1  UNL1       -0.4739
     25 C          16.6853   39.1796   10.7224 C.3     1  UNL1        0.0512
     26 C          17.3120   40.2563    9.8557 C.3     1  UNL1        0.2056
@<TRIPOS>BOND
     1    25    26    1
     2    26    24    1
     3    15    24    1
     4    16    17   ar
     5    16    23   ar
     6    17    22   ar
     7    18    19   ar
     8    20    15   ar
     9    21    22   ar
    10    21     3    1
    11     5     1    1
    12     5     6    1
    13     5    14    1
    14     7     8   ar
    15     9    10   ar
    16    11     6   ar
    17    12    11    1
    18    12    13    1
    19    13    14    1
    20     3     1   am
    21    15    16   ar
    22    17    18   ar
    23    19    20   ar
    24    21    23   ar
    25     1     2    2
    26     6     7   ar
    27     8     9   ar
    28    10    11   ar
    29     3     4    1
@<TRIPOS>MOLECULE
Molport-008-272-750 MCULE-6633283457 PubChem-46951643
 26 29 0 0 0
SMALL
GASTEIGER

@<TRIPOS>ATOM
      1 C          10.9318   41.5320    8.0545 C.2     1  UNL1        0.2590
      2 O          11.3677   41.5272    9.2356 O.2     1  UNL1       -0.2717
      3 N          11.7760   41.8894    6.9523 N.am    1  UNL1       -0.2619
      4 H          11.3737   41.8496    6.0546 H       1  UNL1        0.1568
      5 C           9.5039   41.1637    7.8045 C.3     1  UNL1        0.2131
      6 C           8.5733   42.3557    7.9408 C.ar    1  UNL1        0.0095
      7 C           8.7750   43.3402    8.9202 C.ar    1  UNL1       -0.0018
      8 C           7.8630   44.3900    9.0605 C.ar    1  UNL1       -0.0003
      9 C           6.7355   44.4530    8.2367 C.ar    1  UNL1       -0.0003
     10 C           6.5111   43.4601    7.2790 C.ar    1  UNL1       -0.0044
     11 C           7.4155   42.4031    7.1398 C.ar    1  UNL1       -0.0209
     12 C           7.1646   41.3395    6.1124 C.3     1  UNL1        0.0582
     13 C           8.0656   40.1332    6.3798 C.3     1  UNL1        0.1478
     14 O           9.3952   40.5660    6.5295 O.3     1  UNL1       -0.3424
     15 C          16.4059   41.7803    8.4049 C.ar    1  UNL1        0.1566
     16 C          15.2737   42.2210    7.7127 C.ar    1  UNL1        0.1230
     17 C          15.3546   43.3053    6.8512 C.ar    1  UNL1        0.0527
     18 C          16.5430   43.9961    6.6344 C.ar    1  UNL1        0.0083
     19 C          17.6876   43.5644    7.3206 C.ar    1  UNL1        0.0037
     20 C          17.6218   42.4657    8.1982 C.ar    1  UNL1        0.0385
     21 C          13.1467   42.2986    7.0273 C.ar    1  UNL1        0.1657
     22 S          13.8464   43.5906    6.1759 S.2     1  UNL1       -0.0513
     23 N          14.0429   41.6556    7.8135 N.ar    1  UNL1       -0.2209
     24 O          16.3123   40.6820    9.2688 O.3     1  UNL1       -0.4739
     25 C          16.9670   39.1216   10.9914 C.3     1  UNL1        0.0512
     26 C          17.4301   40.1301    9.9564 C.3     1  UNL1        0.2056
@<TRIPOS>BOND
     1    25    26    1
     2    26    24    1
     3    15    24    1
     4    16    17   ar
     5    16    23   ar
     6    17    22   ar
     7    18    19   ar
     8    20    15   ar
     9    21    22   ar
    10    21     3    1
    11     5     1    1
    12     5     6    1
    13     5    14    1
    14     7     8   ar
    15     9    10   ar
    16    11     6   ar
    17    12    11    1
    18    12    13    1
    19    13    14    1
    20     3     1   am
    21    15    16   ar
    22    17    18   ar
    23    19    20   ar
    24    21    23   ar
    25     1     2    2
    26     6     7   ar
    27     8     9   ar
    28    10    11   ar
    29     3     4    1
@<TRIPOS>MOLECULE
Molport-008-272-750 MCULE-6633283457 PubChem-46951643
 26 29 0 0 0
SMALL
GASTEIGER

@<TRIPOS>ATOM
      1 C          11.1552   41.7889    8.1270 C.2     1  UNL1        0.2590
      2 O          11.2756   42.6701    9.0180 O.2     1  UNL1       -0.2717
      3 N          12.2402   41.4697    7.2460 N.am    1  UNL1       -0.2619
      4 H          12.0814   40.7548    6.5880 H       1  UNL1        0.1568
      5 C           9.8509   41.0705    7.9859 C.3     1  UNL1        0.2131
      6 C           8.9312   41.3166    9.1686 C.ar    1  UNL1        0.0095
      7 C           9.4245   41.4100   10.4791 C.ar    1  UNL1       -0.0018
      8 C           8.5438   41.5723   11.5522 C.ar    1  UNL1       -0.0003
      9 C           7.1655   41.6238   11.3254 C.ar    1  UNL1       -0.0003
     10 C           6.6640   41.5010   10.0266 C.ar    1  UNL1       -0.0044
     11 C           7.5397   41.3301    8.9502 C.ar    1  UNL1       -0.0209
     12 C           6.9927   41.1949    7.5602 C.3     1  UNL1        0.0582
     13 C           8.0797   40.6716    6.6206 C.3     1  UNL1        0.1478
     14 O           9.2416   41.4496    6.7695 O.3     1  UNL1       -0.3424
     15 C          16.9440   42.0383    8.2989 C.ar    1  UNL1        0.1566
     16 C          15.6992   42.3210    7.7282 C.ar    1  UNL1        0.1230
     17 C          15.5332   43.4376    6.9218 C.ar    1  UNL1        0.0527
     18 C          16.5760   44.3159    6.6436 C.ar    1  UNL1        0.0083
     19 C          17.8311   44.0443    7.2079 C.ar    1  UNL1        0.0037
     20 C          18.0156   42.9153    8.0282 C.ar    1  UNL1        0.0385
     21 C          13.5323   42.0876    7.2279 C.ar    1  UNL1        0.1657
     22 S          13.9440   43.5068    6.3911 S.2     1  UNL1       -0.0513
     23 N          14.5847   41.5642    7.9011 N.ar    1  UNL1       -0.2209
     24 O          17.0998   40.9057    9.1080 O.3     1  UNL1       -0.4739
     25 C          16.5263   39.1393   10.6513 C.3     1  UNL1        0.0512
     26 C          16.0133   40.2496    9.7529 C.3     1  UNL1        0.2056
@<TRIPOS>BOND
     1    25    26    1
     2    26    24    1
     3    15    24    1
     4    16    17   ar
     5    16    23   ar
     6    17    22   ar
     7    18    19   ar
     8    20    15   ar
     9    21    22   ar
    10    21     3    1
    11     5     1    1
    12     5     6    1
    13     5    14    1
    14     7     8   ar
    15     9    10   ar
    16    11     6   ar
    17    12    11    1
    18    12    13    1
    19    13    14    1
    20     3     1   am
    21    15    16   ar
    22    17    18   ar
    23    19    20   ar
    24    21    23   ar
    25     1     2    2
    26     6     7   ar
    27     8     9   ar
    28    10    11   ar
    29     3     4    1
@<TRIPOS>MOLECULE
Molport-008-272-750 MCULE-6633283457 PubChem-46951643
 26 29 0 0 0
SMALL
GASTEIGER

@<TRIPOS>ATOM
      1 C          13.4335   41.4510    7.4373 C.2     1  UNL1        0.2590
      2 O          12.6115   40.9386    6.6333 O.2     1  UNL1       -0.2717
      3 N          13.8118   40.7762    8.6443 N.am    1  UNL1       -0.2619
      4 H          14.4761   41.2265    9.2145 H       1  UNL1        0.1568
      5 C          14.0171   42.7923    7.1249 C.3     1  UNL1        0.2131
      6 C          15.5269   42.8108    7.2851 C.ar    1  UNL1        0.0095
      7 C          16.1677   42.1041    8.3143 C.ar    1  UNL1       -0.0018
      8 C          17.5534   42.1947    8.4727 C.ar    1  UNL1       -0.0003
      9 C          18.3047   43.0049    7.6166 C.ar    1  UNL1       -0.0003
     10 C          17.6707   43.7358    6.6080 C.ar    1  UNL1       -0.0044
     11 C          16.2839   43.6558    6.4501 C.ar    1  UNL1       -0.0209
     12 C          15.6113   44.4469    5.3678 C.3     1  UNL1        0.0582
     13 C          14.1016   44.4820    5.6090 C.3     1  UNL1        0.1478
     14 O          13.6309   43.1741    5.8212 O.3     1  UNL1       -0.3424
     15 C          13.9642   36.0608    9.7842 C.ar    1  UNL1        0.1566
     16 C          13.4214   37.3392    9.6223 C.ar    1  UNL1        0.1230
     17 C          12.0966   37.5868    9.9511 C.ar    1  UNL1        0.0527
     18 C          11.2563   36.5963   10.4502 C.ar    1  UNL1        0.0083
     19 C          11.7874   35.3092   10.6197 C.ar    1  UNL1        0.0037
     20 C          13.1298   35.0419   10.2907 C.ar    1  UNL1        0.0385
     21 C          13.3194   39.5117    9.1030 C.ar    1  UNL1        0.1657
     22 S          11.7424   39.1979    9.6493 S.2     1  UNL1       -0.0513
     23 N          14.1079   38.4113    9.1490 N.ar    1  UNL1       -0.2209
     24 O          15.3042   35.8243    9.4525 O.3     1  UNL1       -0.4739
     25 C          15.9983   33.7585    8.4123 C.3     1  UNL1        0.0512
     26 C          15.7134   35.2369    8.2218 C.3     1  UNL1        0.2056
@<TRIPOS>BOND
     1    25    26    1
     2    26    24    1
     3    15    24    1
     4    16    17   ar
     5    16    23   ar
     6    17    22   ar
     7    18    19   ar
     8    20    15   ar
     9    21    22   ar
    10    21     3    1
    11     5     1    1
    12     5     6    1
    13     5    14    1
    14     7     8   ar
    15     9    10   ar
    16    11     6   ar
    17    12    11    1
    18    12    13    1
    19    13    14    1
    20     3     1   am
    21    15    16   ar
    22    17    18   ar
    23    19    20   ar
    24    21    23   ar
    25     1     2    2
    26     6     7   ar
    27     8     9   ar
    28    10    11   ar
    29     3     4    1
@<TRIPOS>MOLECULE
Molport-008-272-750 MCULE-6633283457 PubChem-46951643
 26 29 0 0 0
SMALL
GASTEIGER

@<TRIPOS>ATOM
      1 C          13.6241   41.4849    7.6129 C.2     1  UNL1        0.2590
      2 O          12.7209   40.9006    6.9590 O.2     1  UNL1       -0.2717
      3 N          14.1949   40.8907    8.7861 N.am    1  UNL1       -0.2619
      4 H          14.9121   41.3947    9.2342 H       1  UNL1        0.1568
      5 C          14.1008   42.8269    7.1559 C.3     1  UNL1        0.2131
      6 C          15.6144   42.9401    7.1946 C.ar    1  UNL1        0.0095
      7 C          16.3715   42.3532    8.2201 C.ar    1  UNL1       -0.0018
      8 C          17.7573   42.5313    8.2614 C.ar    1  UNL1       -0.0003
      9 C          18.3924   43.3108    7.2904 C.ar    1  UNL1       -0.0003
     10 C          17.6421   43.9239    6.2831 C.ar    1  UNL1       -0.0044
     11 C          16.2548   43.7562    6.2416 C.ar    1  UNL1       -0.0209
     12 C          15.4569   44.4212    5.1595 C.3     1  UNL1        0.0582
     13 C          13.9701   44.3932    5.5158 C.3     1  UNL1        0.1478
     14 O          13.5962   43.0826    5.8618 O.3     1  UNL1       -0.3424
     15 C          11.3550   37.0852    9.7913 C.ar    1  UNL1        0.1566
     16 C          12.4949   37.8947    9.8136 C.ar    1  UNL1        0.1230
     17 C          13.6162   37.5095   10.5339 C.ar    1  UNL1        0.0527
     18 C          13.6646   36.3209   11.2559 C.ar    1  UNL1        0.0083
     19 C          12.5291   35.4976   11.2414 C.ar    1  UNL1        0.0037
     20 C          11.3834   35.8745   10.5154 C.ar    1  UNL1        0.0385
     21 C          13.8254   39.6365    9.3712 C.ar    1  UNL1        0.1657
     22 S          14.8090   38.6766   10.3686 S.2     1  UNL1       -0.0513
     23 N          12.6076   39.0813    9.1625 N.ar    1  UNL1       -0.2209
     24 O          10.2305   37.4831    9.0573 O.3     1  UNL1       -0.4739
     25 C           9.3287   38.4903    7.0565 C.3     1  UNL1        0.0512
     26 C          10.1772   38.6870    8.2992 C.3     1  UNL1        0.2056
@<TRIPOS>BOND
     1    25    26    1
     2    26    24    1
     3    15    24    1
     4    16    17   ar
     5    16    23   ar
     6    17    22   ar
     7    18    19   ar
     8    20    15   ar
     9    21    22   ar
    10    21     3    1
    11     5     1    1
    12     5     6    1
    13     5    14    1
    14     7     8   ar
    15     9    10   ar
    16    11     6   ar
    17    12    11    1
    18    12    13    1
    19    13    14    1
    20     3     1   am
    21    15    16   ar
    22    17    18   ar
    23    19    20   ar
    24    21    23   ar
    25     1     2    2
    26     6     7   ar
    27     8     9   ar
    28    10    11   ar
    29     3     4    1
@<TRIPOS>MOLECULE
Molport-008-272-750 MCULE-6633283457 PubChem-46951643
 26 29 0 0 0
SMALL
GASTEIGER

@<TRIPOS>ATOM
      1 C          10.9827   41.1994    6.7134 C.2     1  UNL1        0.2590
      2 O          10.9645   42.1342    5.8703 O.2     1  UNL1       -0.2717
      3 N          12.1414   40.9482    7.5194 N.am    1  UNL1       -0.2619
      4 H          12.0763   40.2147    8.1729 H       1  UNL1        0.1568
      5 C           9.7723   40.3343    6.8668 C.3     1  UNL1        0.2131
      6 C           8.7804   40.9094    7.8622 C.ar    1  UNL1        0.0095
      7 C           9.2029   41.5607    9.0313 C.ar    1  UNL1       -0.0018
      8 C           8.2637   42.0213    9.9583 C.ar    1  UNL1       -0.0003
      9 C           6.8993   41.8182    9.7328 C.ar    1  UNL1       -0.0003
     10 C           6.4714   41.1436    8.5859 C.ar    1  UNL1       -0.0044
     11 C           7.4066   40.6733    7.6592 C.ar    1  UNL1       -0.0209
     12 C           6.9389   39.9467    6.4333 C.3     1  UNL1        0.0582
     13 C           8.1166   39.2320    5.7695 C.3     1  UNL1        0.1478
     14 O           9.1788   40.1379    5.6004 O.3     1  UNL1       -0.3424
     15 C          16.8038   41.8841    8.4911 C.ar    1  UNL1        0.1566
     16 C          15.5345   42.0612    7.9318 C.ar    1  UNL1        0.1230
     17 C          15.2769   43.1428    7.1021 C.ar    1  UNL1        0.0527
     18 C          16.2489   44.0879    6.7885 C.ar    1  UNL1        0.0083
     19 C          17.5275   43.9224    7.3408 C.ar    1  UNL1        0.0037
     20 C          17.8047   42.8302    8.1845 C.ar    1  UNL1        0.0385
     21 C          13.3844   41.6581    7.4683 C.ar    1  UNL1        0.1657
     22 S          13.6803   43.0828    6.5927 S.2     1  UNL1       -0.0513
     23 N          14.4808   41.2295    8.1384 N.ar    1  UNL1       -0.2209
     24 O          17.0525   40.7860    9.3240 O.3     1  UNL1       -0.4739
     25 C          16.5696   39.0979   10.9818 C.3     1  UNL1        0.0512
     26 C          16.0227   39.9623    9.8607 C.3     1  UNL1        0.2056
@<TRIPOS>BOND
     1    25    26    1
     2    26    24    1
     3    15    24    1
     4    16    17   ar
     5    16    23   ar
     6    17    22   ar
     7    18    19   ar
     8    20    15   ar
     9    21    22   ar
    10    21     3    1
    11     5     1    1
    12     5     6    1
    13     5    14    1
    14     7     8   ar
    15     9    10   ar
    16    11     6   ar
    17    12    11    1
    18    12    13    1
    19    13    14    1
    20     3     1   am
    21    15    16   ar
    22    17    18   ar
    23    19    20   ar
    24    21    23   ar
    25     1     2    2
    26     6     7   ar
    27     8     9   ar
    28    10    11   ar
    29     3     4    1
@<TRIPOS>MOLECULE
Molport-008-272-750 MCULE-6633283457 PubChem-46951643
 26 29 0 0 0
SMALL
GASTEIGER

@<TRIPOS>ATOM
      1 C          13.2765   41.0390    8.4684 C.2     1  UNL1        0.2590
      2 O          12.8729   40.9070    9.6536 O.2     1  UNL1       -0.2717
      3 N          12.3542   41.1168    7.3736 N.am    1  UNL1       -0.2619
      4 H          12.7403   41.2419    6.4767 H       1  UNL1        0.1568
      5 C          14.7470   41.1082    8.2041 C.3     1  UNL1        0.2131
      6 C          15.1433   42.3983    7.5085 C.ar    1  UNL1        0.0095
      7 C          14.3304   42.9866    6.5275 C.ar    1  UNL1       -0.0018
      8 C          14.7552   44.1392    5.8606 C.ar    1  UNL1       -0.0003
      9 C          16.0009   44.7002    6.1558 C.ar    1  UNL1       -0.0003
     10 C          16.8298   44.1033    7.1098 C.ar    1  UNL1       -0.0044
     11 C          16.4138   42.9456    7.7740 C.ar    1  UNL1       -0.0209
     12 C          17.3116   42.3092    8.7933 C.3     1  UNL1        0.0582
     13 C          16.8174   40.8982    9.1149 C.3     1  UNL1        0.1478
     14 O          15.4454   40.9409    9.4202 O.3     1  UNL1       -0.3424
     15 C           7.8654   39.8330    6.0468 C.ar    1  UNL1        0.1566
     16 C           8.8712   40.4213    6.8198 C.ar    1  UNL1        0.1230
     17 C           8.5517   41.1180    7.9762 C.ar    1  UNL1        0.0527
     18 C           7.2405   41.2635    8.4188 C.ar    1  UNL1        0.0083
     19 C           6.2210   40.6772    7.6545 C.ar    1  UNL1        0.0037
     20 C           6.5289   39.9671    6.4786 C.ar    1  UNL1        0.0385
     21 C          10.9267   41.0306    7.4551 C.ar    1  UNL1        0.1657
     22 S           9.9584   41.7020    8.6779 S.2     1  UNL1       -0.0513
     23 N          10.1961   40.3696    6.5256 N.ar    1  UNL1       -0.2209
     24 O           8.2010   39.1290    4.8835 O.3     1  UNL1       -0.4739
     25 C           9.5769   38.3424    3.0617 C.3     1  UNL1        0.0512
     26 C           9.5433   38.8768    4.4816 C.3     1  UNL1        0.2056
@<TRIPOS>BOND
     1    25    26    1
     2    26    24    1
     3    15    24    1
     4    16    17   ar
     5    16    23   ar
     6    17    22   ar
     7    18    19   ar
     8    20    15   ar
     9    21    22   ar
    10    21     3    1
    11     5     1    1
    12     5     6    1
    13     5    14    1
    14     7     8   ar
    15     9    10   ar
    16    11     6   ar
    17    12    11    1
    18    12    13    1
    19    13    14    1
    20     3     1   am
    21    15    16   ar
    22    17    18   ar
    23    19    20   ar
    24    21    23   ar
    25     1     2    2
    26     6     7   ar
    27     8     9   ar
    28    10    11   ar
    29     3     4    1
@<TRIPOS>MOLECULE
Molport-008-272-750 MCULE-6633283457 PubChem-46951643
 26 29 0 0 0
SMALL
GASTEIGER

@<TRIPOS>ATOM
      1 C           7.8596   41.6526    9.8564 C.2     1  UNL1        0.2590
      2 O           7.8851   40.9408    8.8183 O.2     1  UNL1       -0.2717
      3 N           9.0641   41.9852   10.5591 N.am    1  UNL1       -0.2619
      4 H           8.9705   42.5638   11.3502 H       1  UNL1        0.1568
      5 C           6.5442   42.1511   10.3646 C.3     1  UNL1        0.2131
      6 C           5.8556   43.0666    9.3681 C.ar    1  UNL1        0.0095
      7 C           6.5783   43.9778    8.5827 C.ar    1  UNL1       -0.0018
      8 C           5.9074   44.8513    7.7221 C.ar    1  UNL1       -0.0003
      9 C           4.5114   44.8329    7.6542 C.ar    1  UNL1       -0.0003
     10 C           3.7825   43.9496    8.4554 C.ar    1  UNL1       -0.0044
     11 C           4.4477   43.0793    9.3242 C.ar    1  UNL1       -0.0209
     12 C           3.6574   42.1376   10.1835 C.3     1  UNL1        0.0582
     13 C           4.5517   41.5565   11.2794 C.3     1  UNL1        0.1478
     14 O           5.7291   41.0483   10.7024 O.3     1  UNL1       -0.3424
     15 C          13.1458   41.6927    7.9492 C.ar    1  UNL1        0.1566
     16 C          12.2591   41.4472    9.0021 C.ar    1  UNL1        0.1230
     17 C          12.6237   40.6108   10.0472 C.ar    1  UNL1        0.0527
     18 C          13.8661   39.9864   10.1016 C.ar    1  UNL1        0.0083
     19 C          14.7668   40.2246    9.0531 C.ar    1  UNL1        0.0037
     20 C          14.4118   41.0708    7.9856 C.ar    1  UNL1        0.0385
     21 C          10.3902   41.5594   10.2247 C.ar    1  UNL1        0.1657
     22 S          11.3610   40.5145   11.1465 S.2     1  UNL1       -0.0513
     23 N          11.0132   41.9794    9.0976 N.ar    1  UNL1       -0.2209
     24 O          12.7676   42.5421    6.9018 O.3     1  UNL1       -0.4739
     25 C          15.0421   43.3458    6.7951 C.3     1  UNL1        0.0512
     26 C          13.5956   43.5885    6.4055 C.3     1  UNL1        0.2056
@<TRIPOS>BOND
     1    25    26    1
     2    26    24    1
     3    15    24    1
     4    16    17   ar
     5    16    23   ar
     6    17    22   ar
     7    18    19   ar
     8    20    15   ar
     9    21    22   ar
    10    21     3    1
    11     5     1    1
    12     5     6    1
    13     5    14    1
    14     7     8   ar
    15     9    10   ar
    16    11     6   ar
    17    12    11    1
    18    12    13    1
    19    13    14    1
    20     3     1   am
    21    15    16   ar
    22    17    18   ar
    23    19    20   ar
    24    21    23   ar
    25     1     2    2
    26     6     7   ar
    27     8     9   ar
    28    10    11   ar
    29     3     4    1
@<TRIPOS>MOLECULE
Molport-008-272-750 MCULE-6633283457 PubChem-46951643
 26 29 0 0 0
SMALL
GASTEIGER

@<TRIPOS>ATOM
      1 C          13.0834   41.1182    8.0743 C.2     1  UNL1        0.2590
      2 O          12.5467   41.4295    9.1697 O.2     1  UNL1       -0.2717
      3 N          12.2944   40.7036    6.9514 N.am    1  UNL1       -0.2619
      4 H          12.7801   40.4966    6.1205 H       1  UNL1        0.1568
      5 C          14.5729   41.1775    7.9511 C.3     1  UNL1        0.2131
      6 C          15.0444   42.4813    7.3322 C.ar    1  UNL1        0.0095
      7 C          14.3328   43.1053    6.2962 C.ar    1  UNL1       -0.0018
      8 C          14.8288   44.2705    5.7046 C.ar    1  UNL1       -0.0003
      9 C          16.0462   44.8088    6.1311 C.ar    1  UNL1       -0.0003
     10 C          16.7763   44.1768    7.1415 C.ar    1  UNL1       -0.0044
     11 C          16.2892   43.0064    7.7311 C.ar    1  UNL1       -0.0209
     12 C          17.0813   42.3323    8.8118 C.3     1  UNL1        0.0582
     13 C          16.5464   40.9190    9.0460 C.3     1  UNL1        0.1478
     14 O          15.1522   40.9692    9.2222 O.3     1  UNL1       -0.3424
     15 C           7.6780   41.5969    8.1549 C.ar    1  UNL1        0.1566
     16 C           8.7526   40.9967    7.4915 C.ar    1  UNL1        0.1230
     17 C           8.5297   40.0107    6.5413 C.ar    1  UNL1        0.0527
     18 C           7.2508   39.5775    6.2048 C.ar    1  UNL1        0.0083
     19 C           6.1627   40.1717    6.8608 C.ar    1  UNL1        0.0037
     20 C           6.3725   41.1735    7.8273 C.ar    1  UNL1        0.0385
     21 C          10.8695   40.5606    6.9184 C.ar    1  UNL1        0.1657
     22 S          10.0007   39.4893    5.9278 S.2     1  UNL1       -0.0513
     23 N          10.0576   41.3072    7.7046 N.ar    1  UNL1       -0.2209
     24 O           7.9158   42.5939    9.1092 O.3     1  UNL1       -0.4739
     25 C           6.5505   44.4661    8.4297 C.3     1  UNL1        0.0512
     26 C           7.9409   43.9833    8.7993 C.3     1  UNL1        0.2056
@<TRIPOS>BOND
     1    25    26    1
     2    26    24    1
     3    15    24    1
     4    16    17   ar
     5    16    23   ar
     6    17    22   ar
     7    18    19   ar
     8    20    15   ar
     9    21    22   ar
    10    21     3    1
    11     5     1    1
    12     5     6    1
    13     5    14    1
    14     7     8   ar
    15     9    10   ar
    16    11     6   ar
    17    12    11    1
    18    12    13    1
    19    13    14    1
    20     3     1   am
    21    15    16   ar
    22    17    18   ar
    23    19    20   ar
    24    21    23   ar
    25     1     2    2
    26     6     7   ar
    27     8     9   ar
    28    10    11   ar
    29     3     4    1
@<TRIPOS>MOLECULE
Molport-008-272-750 MCULE-6633283457 PubChem-46951643
 26 29 0 0 0
SMALL
GASTEIGER

@<TRIPOS>ATOM
      1 C          12.7946   40.9437    8.2733 C.2     1  UNL1        0.2590
      2 O          12.0525   40.4564    7.3807 O.2     1  UNL1       -0.2717
      3 N          12.2517   41.4264    9.5093 N.am    1  UNL1       -0.2619
      4 H          12.8938   41.7737   10.1699 H       1  UNL1        0.1568
      5 C          14.2683   41.0241    8.0304 C.3     1  UNL1        0.2131
      6 C          14.6597   42.2984    7.3036 C.ar    1  UNL1        0.0095
      7 C          13.8556   42.8473    6.2930 C.ar    1  UNL1       -0.0018
      8 C          14.2768   43.9853    5.5993 C.ar    1  UNL1       -0.0003
      9 C          15.5105   44.5706    5.8976 C.ar    1  UNL1       -0.0003
     10 C          16.3312   44.0125    6.8817 C.ar    1  UNL1       -0.0044
     11 C          15.9189   42.8694    7.5730 C.ar    1  UNL1       -0.0209
     12 C          16.8079   42.2746    8.6245 C.3     1  UNL1        0.0582
     13 C          16.3262   40.8674    8.9796 C.3     1  UNL1        0.1478
     14 O          14.9490   40.9012    9.2617 O.3     1  UNL1       -0.3424
     15 C           7.4437   41.4847    8.8479 C.ar    1  UNL1        0.1566
     16 C           8.6576   41.4766    9.5421 C.ar    1  UNL1        0.1230
     17 C           8.6739   41.4916   10.9292 C.ar    1  UNL1        0.0527
     18 C           7.5068   41.5137   11.6867 C.ar    1  UNL1        0.0083
     19 C           6.2814   41.5205   11.0041 C.ar    1  UNL1        0.0037
     20 C           6.2481   41.5054    9.5969 C.ar    1  UNL1        0.0385
     21 C          10.8680   41.4534    9.8786 C.ar    1  UNL1        0.1657
     22 S          10.2628   41.4772   11.4650 S.2     1  UNL1       -0.0513
     23 N           9.8804   41.4546    8.9515 N.ar    1  UNL1       -0.2209
     24 O           7.4404   41.4654    7.4475 O.3     1  UNL1       -0.4739
     25 C           6.5676   43.6616    6.9517 C.3     1  UNL1        0.0512
     26 C           7.6362   42.6275    6.6488 C.3     1  UNL1        0.2056
@<TRIPOS>BOND
     1    25    26    1
     2    26    24    1
     3    15    24    1
     4    16    17   ar
     5    16    23   ar
     6    17    22   ar
     7    18    19   ar
     8    20    15   ar
     9    21    22   ar
    10    21     3    1
    11     5     1    1
    12     5     6    1
    13     5    14    1
    14     7     8   ar
    15     9    10   ar
    16    11     6   ar
    17    12    11    1
    18    12    13    1
    19    13    14    1
    20     3     1   am
    21    15    16   ar
    22    17    18   ar
    23    19    20   ar
    24    21    23   ar
    25     1     2    2
    26     6     7   ar
    27     8     9   ar
    28    10    11   ar
    29     3     4    1
