@<TRIPOS>MOLECULE
MolPort-005-074-788 CSSS09880945578 MCULE-8079263191 PubChem-45207808
 30 33 0 0 0
SMALL
GASTEIGER

@<TRIPOS>ATOM
      1 C          14.3042   42.8263    7.0204 C.ar    1  UNL1        0.1199
      2 C          13.6281   41.7578    7.6399 C.ar    1  UNL1        0.0647
      3 C          14.4629   41.0013    8.4689 C.ar    1  UNL1        0.0380
      4 C          14.1128   39.8782    9.2179 C.ar    1  UNL1        0.0045
      5 C          15.1024   39.2670   10.0033 C.ar    1  UNL1        0.0162
      6 C          16.4086   39.7961   10.0234 C.ar    1  UNL1        0.0757
      7 C          15.7563   41.4827    8.5247 C.ar    1  UNL1        0.1117
      8 N          16.7176   40.8987    9.2807 N.ar    1  UNL1       -0.2417
      9 S          15.9192   42.8314    7.5446 S.2     1  UNL1       -0.0603
     10 C          11.2334   41.7495    8.4547 C.2     1  UNL1        0.2256
     11 O          11.5567   42.1930    9.5901 O.2     1  UNL1       -0.2748
     12 N          12.2375   41.4541    7.4776 N.am    1  UNL1       -0.2833
     13 H          11.9549   41.0153    6.6428 H       1  UNL1        0.1549
     14 C           9.7913   41.5474    8.1206 C.3     1  UNL1        0.0768
     15 C           8.9691   41.4767    9.3947 C.3     1  UNL1        0.0096
     16 C           8.9811   42.7477    8.5765 C.3     1  UNL1        0.0096
     17 C          13.7835   43.7374    5.9877 C.2     1  UNL1        0.3487
     18 O          12.8205   43.3664    5.2622 O.2     1  UNL1       -0.2443
     19 C          15.7181   45.2329    5.7034 C.3     1  UNL1        0.2560
     20 O          14.3219   45.0165    5.8397 O.3     1  UNL1       -0.4410
     21 C          17.4659   39.1379   10.8414 C.3     1  UNL1        0.1189
     22 C          18.4452   37.1042   11.4958 C.3     1  UNL1        0.0902
     23 N          17.2897   37.6869   10.8325 N.3     1  UNL1       -0.2636
     24 C          17.2084   37.1321    9.4695 C.3     1  UNL1        0.0865
     25 C          18.5518   36.5956    9.0031 C.3     1  UNL1        0.0228
     26 C          16.0927   36.1447    9.2384 C.ar    1  UNL1        0.0218
     27 C          16.1332   35.1162    8.3123 C.ar    1  UNL1        0.0040
     28 C          14.9809   34.3170    8.3358 C.ar    1  UNL1        0.0072
     29 C          14.0325   34.6987    9.2822 C.ar    1  UNL1        0.0352
     30 S          14.6470   36.0407   10.0882 S.2     1  UNL1       -0.0895
@<TRIPOS>BOND
     1    19    20    1
     2    17    20    1
     3    17     1    1
     4     1     9   ar
     5     2    12    1
     6     2     3   ar
     7    14    10    1
     8    14    15    1
     9    15    16    1
    10    16    14    1
    11     4     5   ar
    12     6     8   ar
    13    21     6    1
    14    21    23    1
    15    22    23    1
    16    24    23    1
    17    24    25    1
    18    24    26    1
    19    26    30   ar
    20    27    28   ar
    21    29    30   ar
    22     7     9   ar
    23     7     3   ar
    24    12    10   am
    25    17    18    2
    26     1     2   ar
    27    10    11    2
    28     3     4   ar
    29     5     6   ar
    30    26    27   ar
    31    28    29   ar
    32     7     8   ar
    33    12    13    1
@<TRIPOS>MOLECULE
MolPort-005-074-788 CSSS09880945578 MCULE-8079263191 PubChem-45207808
 30 33 0 0 0
SMALL
GASTEIGER

@<TRIPOS>ATOM
      1 C           8.3692   43.4678    9.3220 C.ar    1  UNL1        0.1199
      2 C           8.2099   42.4421   10.2733 C.ar    1  UNL1        0.0647
      3 C           9.3912   41.7271   10.4965 C.ar    1  UNL1        0.0380
      4 C           9.5734   40.6515   11.3654 C.ar    1  UNL1        0.0045
      5 C          10.8511   40.0779   11.4555 C.ar    1  UNL1        0.0162
      6 C          11.9094   40.5963   10.6822 C.ar    1  UNL1        0.0757
      7 C          10.4610   42.2001    9.7622 C.ar    1  UNL1        0.1117
      8 N          11.6979   41.6520    9.8435 N.ar    1  UNL1       -0.2417
      9 S           9.9860   43.4893    8.8037 S.2     1  UNL1       -0.0603
     10 C           5.9386   41.3393   10.4279 C.2     1  UNL1        0.2256
     11 O           5.9805   40.9513    9.2287 O.2     1  UNL1       -0.2748
     12 N           6.9942   42.1413   10.9690 N.am    1  UNL1       -0.2833
     13 H           6.8773   42.5087   11.8749 H       1  UNL1        0.1549
     14 C           4.7880   40.9446   11.2953 C.3     1  UNL1        0.0768
     15 C           3.7928   42.0872   11.3877 C.3     1  UNL1        0.0096
     16 C           3.5094   40.9143   10.4772 C.3     1  UNL1        0.0096
     17 C           7.3201   44.3228    8.7424 C.2     1  UNL1        0.3487
     18 O           7.2136   45.5198    9.1263 O.2     1  UNL1       -0.2443
     19 C           6.9809   43.3091    6.5249 C.3     1  UNL1        0.2560
     20 O           6.4771   43.8273    7.7465 O.3     1  UNL1       -0.4410
     21 C          13.2623   39.9769   10.7617 C.3     1  UNL1        0.1189
     22 C          13.8339   38.8228    8.7959 C.3     1  UNL1        0.0902
     23 N          13.9565   40.0995    9.4813 N.3     1  UNL1       -0.2636
     24 C          15.3895   40.4062    9.6382 C.3     1  UNL1        0.0865
     25 C          16.2390   39.1466    9.5940 C.3     1  UNL1        0.0228
     26 C          15.9243   41.4826    8.7278 C.ar    1  UNL1        0.0218
     27 C          17.2377   41.9203    8.7159 C.ar    1  UNL1        0.0040
     28 C          17.4767   42.8981    7.7392 C.ar    1  UNL1        0.0072
     29 C          16.3638   43.2297    6.9696 C.ar    1  UNL1        0.0352
     30 S          15.0817   42.2906    7.5194 S.2     1  UNL1       -0.0895
@<TRIPOS>BOND
     1    19    20    1
     2    17    20    1
     3    17     1    1
     4     1     9   ar
     5     2    12    1
     6     2     3   ar
     7    14    10    1
     8    14    15    1
     9    15    16    1
    10    16    14    1
    11     4     5   ar
    12     6     8   ar
    13    21     6    1
    14    21    23    1
    15    22    23    1
    16    24    23    1
    17    24    25    1
    18    24    26    1
    19    26    30   ar
    20    27    28   ar
    21    29    30   ar
    22     7     9   ar
    23     7     3   ar
    24    12    10   am
    25    17    18    2
    26     1     2   ar
    27    10    11    2
    28     3     4   ar
    29     5     6   ar
    30    26    27   ar
    31    28    29   ar
    32     7     8   ar
    33    12    13    1
@<TRIPOS>MOLECULE
MolPort-005-074-788 CSSS09880945578 MCULE-8079263191 PubChem-45207808
 30 33 0 0 0
SMALL
GASTEIGER

@<TRIPOS>ATOM
      1 C           9.0198   41.5253   10.9874 C.ar    1  UNL1        0.1199
      2 C           8.9931   42.0217    9.6701 C.ar    1  UNL1        0.0647
      3 C          10.2229   41.8836    9.0181 C.ar    1  UNL1        0.0380
      4 C          10.5356   42.2772    7.7172 C.ar    1  UNL1        0.0045
      5 C          11.8334   42.0337    7.2420 C.ar    1  UNL1        0.0162
      6 C          12.7785   41.4008    8.0744 C.ar    1  UNL1        0.0757
      7 C          11.1838   41.2645    9.7933 C.ar    1  UNL1        0.1117
      8 N          12.4392   41.0255    9.3420 N.ar    1  UNL1       -0.2417
      9 S          10.5627   40.8906   11.3035 S.2     1  UNL1       -0.0603
     10 C           7.6331   44.0064    8.8891 C.2     1  UNL1        0.2256
     11 O           8.4023   44.8303    9.4547 O.2     1  UNL1       -0.2748
     12 N           7.8501   42.5978    9.0267 N.am    1  UNL1       -0.2833
     13 H           7.1721   41.9876    8.6562 H       1  UNL1        0.1549
     14 C           6.4976   44.5038    8.0552 C.3     1  UNL1        0.0768
     15 C           5.9132   43.3630    7.2420 C.3     1  UNL1        0.0096
     16 C           5.2048   43.8373    8.4903 C.3     1  UNL1        0.0096
     17 C           7.9608   41.6280   12.0049 C.2     1  UNL1        0.3487
     18 O           8.1302   42.3819   13.0021 O.2     1  UNL1       -0.2443
     19 C           5.5946   41.5502   11.3303 C.3     1  UNL1        0.2560
     20 O           6.7621   40.9306   11.8478 O.3     1  UNL1       -0.4410
     21 C          14.1627   41.1584    7.5790 C.3     1  UNL1        0.1189
     22 C          14.0664   40.1460    9.6977 C.3     1  UNL1        0.0902
     23 N          14.9595   40.4805    8.5998 N.3     1  UNL1       -0.2636
     24 C          16.0464   41.3249    9.1268 C.3     1  UNL1        0.0865
     25 C          17.1941   40.4870    9.6662 C.3     1  UNL1        0.0228
     26 C          16.5262   42.4143    8.2013 C.ar    1  UNL1        0.0218
     27 C          17.8514   42.7820    8.0415 C.ar    1  UNL1        0.0040
     28 C          18.0242   43.7918    7.0836 C.ar    1  UNL1        0.0072
     29 C          16.8457   44.2186    6.4754 C.ar    1  UNL1        0.0352
     30 S          15.5889   43.3232    7.1437 S.2     1  UNL1       -0.0895
@<TRIPOS>BOND
     1    19    20    1
     2    17    20    1
     3    17     1    1
     4     1     9   ar
     5     2    12    1
     6     2     3   ar
     7    14    10    1
     8    14    15    1
     9    15    16    1
    10    16    14    1
    11     4     5   ar
    12     6     8   ar
    13    21     6    1
    14    21    23    1
    15    22    23    1
    16    24    23    1
    17    24    25    1
    18    24    26    1
    19    26    30   ar
    20    27    28   ar
    21    29    30   ar
    22     7     9   ar
    23     7     3   ar
    24    12    10   am
    25    17    18    2
    26     1     2   ar
    27    10    11    2
    28     3     4   ar
    29     5     6   ar
    30    26    27   ar
    31    28    29   ar
    32     7     8   ar
    33    12    13    1
@<TRIPOS>MOLECULE
MolPort-005-074-788 CSSS09880945578 MCULE-8079263191 PubChem-45207808
 30 33 0 0 0
SMALL
GASTEIGER

@<TRIPOS>ATOM
      1 C          14.7288   39.8691   10.1546 C.ar    1  UNL1        0.1199
      2 C          14.8593   40.6067    8.9624 C.ar    1  UNL1        0.0647
      3 C          13.6240   40.9802    8.4228 C.ar    1  UNL1        0.0380
      4 C          13.4005   41.7062    7.2532 C.ar    1  UNL1        0.0045
      5 C          12.0753   41.9923    6.8906 C.ar    1  UNL1        0.0162
      6 C          11.0136   41.5520    7.7064 C.ar    1  UNL1        0.0757
      7 C          12.5496   40.5735    9.1895 C.ar    1  UNL1        0.1117
      8 N          11.2670   40.8460    8.8466 N.ar    1  UNL1       -0.2417
      9 S          13.0799   39.7271   10.5343 S.2     1  UNL1       -0.0603
     10 C          16.5297   42.3190    8.1398 C.2     1  UNL1        0.2256
     11 O          15.7538   43.2815    8.3887 O.2     1  UNL1       -0.2748
     12 N          16.1008   40.9685    8.3457 N.am    1  UNL1       -0.2833
     13 H          16.6956   40.2439    8.0450 H       1  UNL1        0.1549
     14 C          17.9123   42.5904    7.6431 C.3     1  UNL1        0.0768
     15 C          17.8638   43.5704    6.4848 C.3     1  UNL1        0.0096
     16 C          18.2633   44.0513    7.8610 C.3     1  UNL1        0.0096
     17 C          15.7971   39.2007   10.9158 C.2     1  UNL1        0.3487
     18 O          15.5697   38.8149   12.0952 O.2     1  UNL1       -0.2443
     19 C          18.2469   39.0108   11.0663 C.3     1  UNL1        0.2560
     20 O          17.0378   38.9576   10.3246 O.3     1  UNL1       -0.4410
     21 C           9.6050   41.8380    7.3137 C.3     1  UNL1        0.1189
     22 C           7.9459   40.2133    7.6756 C.3     1  UNL1        0.0902
     23 N           8.6781   41.2995    8.3072 N.3     1  UNL1       -0.2636
     24 C           7.7057   42.3012    8.7799 C.3     1  UNL1        0.0865
     25 C           7.2722   43.2320    7.6593 C.3     1  UNL1        0.0228
     26 C           6.5297   41.7502    9.5459 C.ar    1  UNL1        0.0218
     27 C           6.5197   41.5201   10.9111 C.ar    1  UNL1        0.0040
     28 C           5.2827   41.0482   11.3744 C.ar    1  UNL1        0.0072
     29 C           4.3094   40.9138   10.3869 C.ar    1  UNL1        0.0352
     30 S           5.0073   41.3902    8.9329 S.2     1  UNL1       -0.0895
@<TRIPOS>BOND
     1    19    20    1
     2    17    20    1
     3    17     1    1
     4     1     9   ar
     5     2    12    1
     6     2     3   ar
     7    14    10    1
     8    14    15    1
     9    15    16    1
    10    16    14    1
    11     4     5   ar
    12     6     8   ar
    13    21     6    1
    14    21    23    1
    15    22    23    1
    16    24    23    1
    17    24    25    1
    18    24    26    1
    19    26    30   ar
    20    27    28   ar
    21    29    30   ar
    22     7     9   ar
    23     7     3   ar
    24    12    10   am
    25    17    18    2
    26     1     2   ar
    27    10    11    2
    28     3     4   ar
    29     5     6   ar
    30    26    27   ar
    31    28    29   ar
    32     7     8   ar
    33    12    13    1
@<TRIPOS>MOLECULE
MolPort-005-074-788 CSSS09880945578 MCULE-8079263191 PubChem-45207808
 30 33 0 0 0
SMALL
GASTEIGER

@<TRIPOS>ATOM
      1 C           8.2684   43.5106    9.4297 C.ar    1  UNL1        0.1199
      2 C           8.1223   42.4555   10.3505 C.ar    1  UNL1        0.0647
      3 C           9.3196   41.7681   10.5755 C.ar    1  UNL1        0.0380
      4 C           9.5177   40.6749   11.4185 C.ar    1  UNL1        0.0045
      5 C          10.8095   40.1351   11.5159 C.ar    1  UNL1        0.0162
      6 C          11.8655   40.7037   10.7754 C.ar    1  UNL1        0.0757
      7 C          10.3878   42.2905    9.8729 C.ar    1  UNL1        0.1117
      8 N          11.6382   41.7754    9.9615 N.ar    1  UNL1       -0.2417
      9 S           9.8925   43.5914    8.9408 S.2     1  UNL1       -0.0603
     10 C           5.8743   41.2984   10.4300 C.2     1  UNL1        0.2256
     11 O           5.9414   40.9574    9.2177 O.2     1  UNL1       -0.2748
     12 N           6.9041   42.1021   11.0164 N.am    1  UNL1       -0.2833
     13 H           6.7666   42.4320   11.9337 H       1  UNL1        0.1549
     14 C           4.7208   40.8461   11.2648 C.3     1  UNL1        0.0768
     15 C           3.7259   41.9803   11.4323 C.3     1  UNL1        0.0096
     16 C           3.4448   40.8728   10.4428 C.3     1  UNL1        0.0096
     17 C           7.2053   44.3513    8.8546 C.2     1  UNL1        0.3487
     18 O           7.0776   45.5435    9.2465 O.2     1  UNL1       -0.2443
     19 C           6.8734   43.4566    6.5854 C.3     1  UNL1        0.2560
     20 O           6.3722   43.8480    7.8544 O.3     1  UNL1       -0.4410
     21 C          13.2339   40.1205   10.8623 C.3     1  UNL1        0.1189
     22 C          15.1042   39.3308    9.6784 C.3     1  UNL1        0.0902
     23 N          13.7264   39.7721    9.5310 N.3     1  UNL1       -0.2636
     24 C          13.7020   40.9133    8.5986 C.3     1  UNL1        0.0865
     25 C          15.1036   41.3144    8.1689 C.3     1  UNL1        0.0228
     26 C          12.7685   40.7688    7.4234 C.ar    1  UNL1        0.0218
     27 C          12.0332   39.6305    7.1397 C.ar    1  UNL1        0.0040
     28 C          11.2098   39.7809    6.0142 C.ar    1  UNL1        0.0072
     29 C          11.2796   41.0348    5.4111 C.ar    1  UNL1        0.0352
     30 S          12.3766   41.9518    6.2964 S.2     1  UNL1       -0.0895
@<TRIPOS>BOND
     1    19    20    1
     2    17    20    1
     3    17     1    1
     4     1     9   ar
     5     2    12    1
     6     2     3   ar
     7    14    10    1
     8    14    15    1
     9    15    16    1
    10    16    14    1
    11     4     5   ar
    12     6     8   ar
    13    21     6    1
    14    21    23    1
    15    22    23    1
    16    24    23    1
    17    24    25    1
    18    24    26    1
    19    26    30   ar
    20    27    28   ar
    21    29    30   ar
    22     7     9   ar
    23     7     3   ar
    24    12    10   am
    25    17    18    2
    26     1     2   ar
    27    10    11    2
    28     3     4   ar
    29     5     6   ar
    30    26    27   ar
    31    28    29   ar
    32     7     8   ar
    33    12    13    1
@<TRIPOS>MOLECULE
MolPort-005-074-788 CSSS09880945578 MCULE-8079263191 PubChem-45207808
 30 33 0 0 0
SMALL
GASTEIGER

@<TRIPOS>ATOM
      1 C          14.3487   40.6865    9.1477 C.ar    1  UNL1        0.1199
      2 C          13.7482   41.2538    8.0077 C.ar    1  UNL1        0.0647
      3 C          12.3519   41.1765    8.0403 C.ar    1  UNL1        0.0380
      4 C          11.4600   41.6344    7.0708 C.ar    1  UNL1        0.0045
      5 C          10.0852   41.4737    7.3023 C.ar    1  UNL1        0.0162
      6 C           9.6403   40.8672    8.4944 C.ar    1  UNL1        0.0757
      7 C          11.8657   40.5914    9.1930 C.ar    1  UNL1        0.1117
      8 N          10.5397   40.4326    9.4244 N.ar    1  UNL1       -0.2417
      9 S          13.1297   40.1323   10.1918 S.2     1  UNL1       -0.0603
     10 C          14.4089   43.2660    6.6244 C.2     1  UNL1        0.2256
     11 O          13.6263   44.0288    7.2537 O.2     1  UNL1       -0.2748
     12 N          14.4522   41.8657    6.9203 N.am    1  UNL1       -0.2833
     13 H          14.9994   41.2878    6.3408 H       1  UNL1        0.1549
     14 C          15.3099   43.8304    5.5748 C.3     1  UNL1        0.0768
     15 C          15.4808   45.3238    5.7868 C.3     1  UNL1        0.0096
     16 C          16.5749   44.3729    6.2154 C.3     1  UNL1        0.0096
     17 C          15.7846   40.4678    9.3887 C.2     1  UNL1        0.3487
     18 O          16.6317   41.1336    8.7327 O.2     1  UNL1       -0.2443
     19 C          17.5704   39.2023   10.5153 C.3     1  UNL1        0.2560
     20 O          16.2059   39.5625   10.3638 O.3     1  UNL1       -0.4410
     21 C           8.1819   40.6781    8.7341 C.3     1  UNL1        0.1189
     22 C           8.1810   41.9865   10.6863 C.3     1  UNL1        0.0902
     23 N           7.6072   41.8699    9.3551 N.3     1  UNL1       -0.2636
     24 C           6.1413   41.7922    9.4869 C.3     1  UNL1        0.0865
     25 C           5.7241   41.4762   10.9138 C.3     1  UNL1        0.0228
     26 C           5.3778   42.9617    8.9189 C.ar    1  UNL1        0.0218
     27 C           5.9261   43.9355    8.1017 C.ar    1  UNL1        0.0040
     28 C           4.9837   44.8833    7.6767 C.ar    1  UNL1        0.0072
     29 C           3.6899   44.6603    8.1428 C.ar    1  UNL1        0.0352
     30 S           3.7347   43.2700    9.0878 S.2     1  UNL1       -0.0895
@<TRIPOS>BOND
     1    19    20    1
     2    17    20    1
     3    17     1    1
     4     1     9   ar
     5     2    12    1
     6     2     3   ar
     7    14    10    1
     8    14    15    1
     9    15    16    1
    10    16    14    1
    11     4     5   ar
    12     6     8   ar
    13    21     6    1
    14    21    23    1
    15    22    23    1
    16    24    23    1
    17    24    25    1
    18    24    26    1
    19    26    30   ar
    20    27    28   ar
    21    29    30   ar
    22     7     9   ar
    23     7     3   ar
    24    12    10   am
    25    17    18    2
    26     1     2   ar
    27    10    11    2
    28     3     4   ar
    29     5     6   ar
    30    26    27   ar
    31    28    29   ar
    32     7     8   ar
    33    12    13    1
@<TRIPOS>MOLECULE
MolPort-005-074-788 CSSS09880945578 MCULE-8079263191 PubChem-45207808
 30 33 0 0 0
SMALL
GASTEIGER

@<TRIPOS>ATOM
      1 C          14.2450   42.1825    7.6637 C.ar    1  UNL1        0.1199
      2 C          13.6462   41.1921    8.4654 C.ar    1  UNL1        0.0647
      3 C          14.5846   40.4256    9.1643 C.ar    1  UNL1        0.0380
      4 C          14.3273   39.3662   10.0340 C.ar    1  UNL1        0.0045
      5 C          15.4166   38.7325   10.6516 C.ar    1  UNL1        0.0162
      6 C          16.7283   39.1767   10.3889 C.ar    1  UNL1        0.0757
      7 C          15.8880   40.8249    8.9420 C.ar    1  UNL1        0.1117
      8 N          16.9454   40.2186    9.5345 N.ar    1  UNL1       -0.2417
      9 S          15.9291   42.1097    7.8678 S.2     1  UNL1       -0.0603
     10 C          11.4991   40.0310    7.8016 C.2     1  UNL1        0.2256
     11 O          12.0540   39.4249    6.8450 O.2     1  UNL1       -0.2748
     12 N          12.2363   40.9709    8.5911 N.am    1  UNL1       -0.2833
     13 H          11.7441   41.4975    9.2617 H       1  UNL1        0.1549
     14 C          10.0670   39.7534    8.1243 C.3     1  UNL1        0.0768
     15 C           9.4138   39.0017    6.9786 C.3     1  UNL1        0.0096
     16 C           9.8393   38.2556    8.2224 C.3     1  UNL1        0.0096
     17 C          13.5828   43.0725    6.6957 C.2     1  UNL1        0.3487
     18 O          12.6087   42.6396    6.0211 O.2     1  UNL1       -0.2443
     19 C          14.9976   44.7741    5.6171 C.3     1  UNL1        0.2560
     20 O          14.0011   44.3966    6.5548 O.3     1  UNL1       -0.4410
     21 C          17.8877   38.4934   11.0284 C.3     1  UNL1        0.1189
     22 C          18.9809   36.4543   11.4412 C.3     1  UNL1        0.0902
     23 N          17.8426   37.0563   10.7654 N.3     1  UNL1       -0.2636
     24 C          17.9339   36.7376    9.3293 C.3     1  UNL1        0.0865
     25 C          19.3785   36.6777    8.8606 C.3     1  UNL1        0.0228
     26 C          17.1426   35.5347    8.8820 C.ar    1  UNL1        0.0218
     27 C          17.6636   34.2596    8.7417 C.ar    1  UNL1        0.0040
     28 C          16.6991   33.3170    8.3563 C.ar    1  UNL1        0.0072
     29 C          15.4151   33.8348    8.2015 C.ar    1  UNL1        0.0352
     30 S          15.4963   35.4777    8.5510 S.2     1  UNL1       -0.0895
@<TRIPOS>BOND
     1    19    20    1
     2    17    20    1
     3    17     1    1
     4     1     9   ar
     5     2    12    1
     6     2     3   ar
     7    14    10    1
     8    14    15    1
     9    15    16    1
    10    16    14    1
    11     4     5   ar
    12     6     8   ar
    13    21     6    1
    14    21    23    1
    15    22    23    1
    16    24    23    1
    17    24    25    1
    18    24    26    1
    19    26    30   ar
    20    27    28   ar
    21    29    30   ar
    22     7     9   ar
    23     7     3   ar
    24    12    10   am
    25    17    18    2
    26     1     2   ar
    27    10    11    2
    28     3     4   ar
    29     5     6   ar
    30    26    27   ar
    31    28    29   ar
    32     7     8   ar
    33    12    13    1
@<TRIPOS>MOLECULE
MolPort-005-074-788 CSSS09880945578 MCULE-8079263191 PubChem-45207808
 30 33 0 0 0
SMALL
GASTEIGER

@<TRIPOS>ATOM
      1 C          14.5508   39.9429   10.3413 C.ar    1  UNL1        0.1199
      2 C          14.7617   40.6270    9.1289 C.ar    1  UNL1        0.0647
      3 C          13.5657   40.9824    8.4966 C.ar    1  UNL1        0.0380
      4 C          13.4218   41.6575    7.2848 C.ar    1  UNL1        0.0045
      5 C          12.1242   41.9339    6.8270 C.ar    1  UNL1        0.0162
      6 C          11.0100   41.5348    7.5924 C.ar    1  UNL1        0.0757
      7 C          12.4421   40.6148    9.2107 C.ar    1  UNL1        0.1117
      8 N          11.1857   40.8781    8.7758 N.ar    1  UNL1       -0.2417
      9 S          12.8803   39.8255   10.6218 S.2     1  UNL1       -0.0603
     10 C          16.3940   42.2537    8.0856 C.2     1  UNL1        0.2256
     11 O          15.5241   43.1629    8.0012 O.2     1  UNL1       -0.2748
     12 N          16.0422   40.9555    8.5769 N.am    1  UNL1       -0.2833
     13 H          16.7222   40.2450    8.5326 H       1  UNL1        0.1549
     14 C          17.8053   42.5383    7.6868 C.3     1  UNL1        0.0768
     15 C          17.8530   43.7587    6.7852 C.3     1  UNL1        0.0096
     16 C          18.2389   43.8834    8.2414 C.3     1  UNL1        0.0096
     17 C          15.5640   39.3033   11.1969 C.2     1  UNL1        0.3487
     18 O          15.2031   38.7232   12.2574 O.2     1  UNL1       -0.2443
     19 C          17.7062   38.1304   10.8885 C.3     1  UNL1        0.2560
     20 O          16.9072   39.3014   10.8179 O.3     1  UNL1       -0.4410
     21 C           9.6311   41.8100    7.0993 C.3     1  UNL1        0.1189
     22 C           9.7791   40.3785    5.2414 C.3     1  UNL1        0.0902
     23 N           9.0602   40.6137    6.4834 N.3     1  UNL1       -0.2636
     24 C           7.6281   40.7636    6.1694 C.3     1  UNL1        0.0865
     25 C           6.8805   39.4496    6.3268 C.3     1  UNL1        0.0228
     26 C           6.9280   41.9012    6.8688 C.ar    1  UNL1        0.0218
     27 C           6.7344   43.1587    6.3229 C.ar    1  UNL1        0.0040
     28 C           6.0130   44.0140    7.1686 C.ar    1  UNL1        0.0072
     29 C           5.6241   43.4387    8.3763 C.ar    1  UNL1        0.0352
     30 S           6.1879   41.8544    8.3765 S.2     1  UNL1       -0.0895
@<TRIPOS>BOND
     1    19    20    1
     2    17    20    1
     3    17     1    1
     4     1     9   ar
     5     2    12    1
     6     2     3   ar
     7    14    10    1
     8    14    15    1
     9    15    16    1
    10    16    14    1
    11     4     5   ar
    12     6     8   ar
    13    21     6    1
    14    21    23    1
    15    22    23    1
    16    24    23    1
    17    24    25    1
    18    24    26    1
    19    26    30   ar
    20    27    28   ar
    21    29    30   ar
    22     7     9   ar
    23     7     3   ar
    24    12    10   am
    25    17    18    2
    26     1     2   ar
    27    10    11    2
    28     3     4   ar
    29     5     6   ar
    30    26    27   ar
    31    28    29   ar
    32     7     8   ar
    33    12    13    1
@<TRIPOS>MOLECULE
MolPort-005-074-788 CSSS09880945578 MCULE-8079263191 PubChem-45207808
 30 33 0 0 0
SMALL
GASTEIGER

@<TRIPOS>ATOM
      1 C          13.2898   41.8717    7.6441 C.ar    1  UNL1        0.1199
      2 C          12.7579   41.2105    8.7675 C.ar    1  UNL1        0.0647
      3 C          13.7355   40.5399    9.5100 C.ar    1  UNL1        0.0380
      4 C          13.5445   39.7867   10.6682 C.ar    1  UNL1        0.0045
      5 C          14.6672   39.2026   11.2748 C.ar    1  UNL1        0.0162
      6 C          15.9462   39.3911   10.7131 C.ar    1  UNL1        0.0757
      7 C          15.0095   40.6971    9.0004 C.ar    1  UNL1        0.1117
      8 N          16.0989   40.1367    9.5802 N.ar    1  UNL1       -0.2417
      9 S          14.9717   41.6401    7.6164 S.2     1  UNL1       -0.0603
     10 C          10.6699   42.3758    9.5928 C.2     1  UNL1        0.2256
     11 O          11.2820   43.4611    9.7875 O.2     1  UNL1       -0.2748
     12 N          11.3775   41.2121    9.1510 N.am    1  UNL1       -0.2833
     13 H          10.8852   40.3606    9.1082 H       1  UNL1        0.1549
     14 C           9.1929   42.3086    9.8076 C.3     1  UNL1        0.0768
     15 C           8.5440   43.6044    9.3556 C.3     1  UNL1        0.0096
     16 C           8.4719   42.3790    8.4735 C.3     1  UNL1        0.0096
     17 C          12.5472   42.5549    6.5720 C.2     1  UNL1        0.3487
     18 O          13.0547   43.5656    6.0131 O.2     1  UNL1       -0.2443
     19 C          11.1800   40.7964    5.5240 C.3     1  UNL1        0.2560
     20 O          11.3113   42.0646    6.1477 O.3     1  UNL1       -0.4410
     21 C          17.1373   38.7563   11.3444 C.3     1  UNL1        0.1189
     22 C          18.4997   36.8421   11.3972 C.3     1  UNL1        0.0902
     23 N          17.1759   37.3271   11.0406 N.3     1  UNL1       -0.2636
     24 C          16.9466   37.0426    9.6127 C.3     1  UNL1        0.0865
     25 C          18.2539   36.8218    8.8695 C.3     1  UNL1        0.0228
     26 C          15.9397   35.9584    9.3226 C.ar    1  UNL1        0.0218
     27 C          14.6052   36.0076    9.6884 C.ar    1  UNL1        0.0040
     28 C          13.8803   34.8882    9.2540 C.ar    1  UNL1        0.0072
     29 C          14.6293   33.9579    8.5368 C.ar    1  UNL1        0.0352
     30 S          16.2021   34.5469    8.4499 S.2     1  UNL1       -0.0895
@<TRIPOS>BOND
     1    19    20    1
     2    17    20    1
     3    17     1    1
     4     1     9   ar
     5     2    12    1
     6     2     3   ar
     7    14    10    1
     8    14    15    1
     9    15    16    1
    10    16    14    1
    11     4     5   ar
    12     6     8   ar
    13    21     6    1
    14    21    23    1
    15    22    23    1
    16    24    23    1
    17    24    25    1
    18    24    26    1
    19    26    30   ar
    20    27    28   ar
    21    29    30   ar
    22     7     9   ar
    23     7     3   ar
    24    12    10   am
    25    17    18    2
    26     1     2   ar
    27    10    11    2
    28     3     4   ar
    29     5     6   ar
    30    26    27   ar
    31    28    29   ar
    32     7     8   ar
    33    12    13    1
@<TRIPOS>MOLECULE
MolPort-005-074-788 CSSS09880945578 MCULE-8079263191 PubChem-45207808
 30 33 0 0 0
SMALL
GASTEIGER

@<TRIPOS>ATOM
      1 C          12.7390   40.5360    9.3115 C.ar    1  UNL1        0.1199
      2 C          12.7064   41.0446    7.9990 C.ar    1  UNL1        0.0647
      3 C          11.4102   41.1023    7.4764 C.ar    1  UNL1        0.0380
      4 C          11.0315   41.5462    6.2097 C.ar    1  UNL1        0.0045
      5 C           9.6669   41.5384    5.8822 C.ar    1  UNL1        0.0162
      6 C           8.7206   41.0942    6.8277 C.ar    1  UNL1        0.0757
      7 C          10.4441   40.6793    8.3683 C.ar    1  UNL1        0.1117
      8 N           9.1244   40.6688    8.0600 N.ar    1  UNL1       -0.2417
      9 S          11.1507   40.2021    9.8103 S.2     1  UNL1       -0.0603
     10 C          14.1600   42.8530    6.9912 C.2     1  UNL1        0.2256
     11 O          13.3499   43.7646    7.3123 O.2     1  UNL1       -0.2748
     12 N          13.8489   41.4799    7.2523 N.am    1  UNL1       -0.2833
     13 H          14.4577   40.7927    6.8968 H       1  UNL1        0.1549
     14 C          15.4614   43.2095    6.3498 C.3     1  UNL1        0.0768
     15 C          15.5931   44.7185    6.2486 C.3     1  UNL1        0.0096
     16 C          16.3325   43.9697    7.3338 C.3     1  UNL1        0.0096
     17 C          13.9279   40.2077   10.1156 C.2     1  UNL1        0.3487
     18 O          13.7803   39.7424   11.2788 O.2     1  UNL1       -0.2443
     19 C          16.3169   39.6179   10.0478 C.3     1  UNL1        0.2560
     20 O          15.2070   40.3698    9.5813 O.3     1  UNL1       -0.4410
     21 C           7.2730   41.0668    6.4757 C.3     1  UNL1        0.1189
     22 C           6.9921   43.3736    6.1252 C.3     1  UNL1        0.0902
     23 N           6.6018   42.2635    6.9796 N.3     1  UNL1       -0.2636
     24 C           6.9830   42.5885    8.3657 C.3     1  UNL1        0.0865
     25 C           7.4982   44.0134    8.4846 C.3     1  UNL1        0.0228
     26 C           5.9458   42.2716    9.4132 C.ar    1  UNL1        0.0218
     27 C           6.1669   41.4702   10.5203 C.ar    1  UNL1        0.0040
     28 C           5.0460   41.3787   11.3585 C.ar    1  UNL1        0.0072
     29 C           3.9421   42.1116   10.9285 C.ar    1  UNL1        0.0352
     30 S           4.3795   42.8741    9.4949 S.2     1  UNL1       -0.0895
@<TRIPOS>BOND
     1    19    20    1
     2    17    20    1
     3    17     1    1
     4     1     9   ar
     5     2    12    1
     6     2     3   ar
     7    14    10    1
     8    14    15    1
     9    15    16    1
    10    16    14    1
    11     4     5   ar
    12     6     8   ar
    13    21     6    1
    14    21    23    1
    15    22    23    1
    16    24    23    1
    17    24    25    1
    18    24    26    1
    19    26    30   ar
    20    27    28   ar
    21    29    30   ar
    22     7     9   ar
    23     7     3   ar
    24    12    10   am
    25    17    18    2
    26     1     2   ar
    27    10    11    2
    28     3     4   ar
    29     5     6   ar
    30    26    27   ar
    31    28    29   ar
    32     7     8   ar
    33    12    13    1
