@<TRIPOS>MOLECULE
MolPort-020-292-534 MCULE-6667989060 PubChem-110265002
 34 37 0 0 0
SMALL
GASTEIGER

@<TRIPOS>ATOM
      1 C          16.2405   41.9369    8.2044 C.ar    1  UNL1        0.0528
      2 C          14.9498   41.4181    8.3316 C.ar    1  UNL1        0.0294
      3 C          13.8796   42.0586    7.7017 C.ar    1  UNL1        0.0611
      4 C          15.3454   43.7113    6.8277 C.ar    1  UNL1        0.0602
      5 C          16.4369   43.0966    7.4433 C.ar    1  UNL1        0.0294
      6 C          15.5454   44.9417    6.0191 C.3     1  UNL1        0.0521
      7 N          14.0996   43.1854    6.9679 N.ar    1  UNL1       -0.2538
      8 C          12.5030   41.4995    7.8432 C.3     1  UNL1        0.0602
      9 C          12.4618   40.4344    8.9411 C.3     1  UNL1        0.0094
     10 C          11.0497   39.8704    9.0829 C.3     1  UNL1        0.0219
     11 C          10.5871   39.2825    7.7532 C.3     1  UNL1        0.0934
     12 C          12.0189   40.9202    6.5140 C.3     1  UNL1        0.0992
     13 C           9.5963   40.6672    5.8885 C.2     1  UNL1        0.2280
     14 N          10.7154   40.2911    6.7043 N.am    1  UNL1       -0.2791
     15 O           9.7506   41.4860    4.9427 O.2     1  UNL1       -0.2748
     16 C           8.2284   40.1070    6.1519 C.3     1  UNL1        0.1121
     17 C           7.2333   41.1544    6.6584 C.3     1  UNL1        0.0970
     18 C           6.1485   40.4118    7.4550 C.3     1  UNL1        0.0274
     19 C           5.5247   41.2994    8.5294 C.3     1  UNL1        0.0024
     20 C           6.5704   41.7411    9.5615 C.3     1  UNL1        0.0002
     21 C           7.9884   41.8502    8.9866 C.3     1  UNL1        0.0024
     22 C           7.9571   42.2210    7.5056 C.3     1  UNL1        0.0274
     23 O           6.6261   41.7853    5.5708 O.3     1  UNL1       -0.3863
     24 H           6.1668   41.1248    5.0290 H       1  UNL1        0.2102
     25 N          17.3228   41.2613    8.8602 N.pl3   1  UNL1       -0.2825
     26 H          18.2197   41.6460    8.7307 H       1  UNL1        0.1551
     27 C          19.3572   37.1636   10.6131 C.3     1  UNL1        0.0522
     28 C          18.2087   38.1039   10.5437 C.ar    1  UNL1        0.0634
     29 C          17.0530   37.8487   11.2791 C.ar    1  UNL1        0.0296
     30 C          15.9983   38.7547   11.1870 C.ar    1  UNL1        0.0634
     31 C          17.2467   40.0892    9.6829 C.ar    1  UNL1        0.2200
     32 C          14.7479   38.5200   11.9550 C.3     1  UNL1        0.0522
     33 N          16.1130   39.8528   10.3951 N.ar    1  UNL1       -0.2179
     34 N          18.2853   39.2128    9.7631 N.ar    1  UNL1       -0.2179
@<TRIPOS>BOND
     1    27    28    1
     2    28    34   ar
     3    29    30   ar
     4    31    33   ar
     5    31    25    1
     6     2     3   ar
     7     4     7   ar
     8     5     1   ar
     9     6     4    1
    10     8     3    1
    11     8     9    1
    12     9    10    1
    13    10    11    1
    14    11    14    1
    15    12    14    1
    16    12     8    1
    17    16    13    1
    18    16    17    1
    19    17    18    1
    20    17    23    1
    21    18    19    1
    22    19    20    1
    23    20    21    1
    24    21    22    1
    25    22    17    1
    26    32    30    1
    27    25     1    1
    28    14    13   am
    29    28    29   ar
    30    30    33   ar
    31    31    34   ar
    32     1     2   ar
    33     3     7   ar
    34     4     5   ar
    35    13    15    2
    36    25    26    1
    37    23    24    1
@<TRIPOS>MOLECULE
MolPort-020-292-534 MCULE-6667989060 PubChem-110265002
 34 37 0 0 0
SMALL
GASTEIGER

@<TRIPOS>ATOM
      1 C          15.6609   41.8981    8.0561 C.ar    1  UNL1        0.0528
      2 C          14.4154   41.2865    8.2168 C.ar    1  UNL1        0.0294
      3 C          13.3028   41.7896    7.5375 C.ar    1  UNL1        0.0611
      4 C          14.6381   43.4876    6.5487 C.ar    1  UNL1        0.0602
      5 C          15.7699   43.0108    7.2119 C.ar    1  UNL1        0.0294
      6 C          14.7456   44.6674    5.6519 C.3     1  UNL1        0.0521
      7 N          13.4378   42.8736    6.7231 N.ar    1  UNL1       -0.2538
      8 C          11.9748   41.1320    7.7151 C.3     1  UNL1        0.0602
      9 C          11.7471   40.0722    6.6350 C.3     1  UNL1        0.0094
     10 C          10.3886   39.4010    6.8260 C.3     1  UNL1        0.0219
     11 C           9.2796   40.4479    6.7869 C.3     1  UNL1        0.0934
     12 C          10.8535   42.1707    7.6939 C.3     1  UNL1        0.0992
     13 C           8.6107   41.8424    8.7830 C.2     1  UNL1        0.2280
     14 N           9.5625   41.4933    7.7673 N.am    1  UNL1       -0.2791
     15 O           8.8487   42.7971    9.5707 O.2     1  UNL1       -0.2748
     16 C           7.3291   41.0749    8.9340 C.3     1  UNL1        0.1121
     17 C           6.1449   41.7284    8.2167 C.3     1  UNL1        0.0970
     18 C           5.3479   42.5172    9.2681 C.3     1  UNL1        0.0274
     19 C           4.6064   43.6999    8.6495 C.3     1  UNL1        0.0024
     20 C           5.5844   44.7052    8.0277 C.3     1  UNL1        0.0002
     21 C           6.8798   44.0618    7.5167 C.3     1  UNL1        0.0024
     22 C           6.6405   42.6236    7.0625 C.3     1  UNL1        0.0274
     23 O           5.3153   40.7375    7.6880 O.3     1  UNL1       -0.3863
     24 H           4.9963   40.1667    8.4045 H       1  UNL1        0.2102
     25 N          16.7881   41.3630    8.7640 N.pl3   1  UNL1       -0.2825
     26 H          17.6417   41.8400    8.6496 H       1  UNL1        0.1551
     27 C          19.1407   37.4632   10.5695 C.3     1  UNL1        0.0522
     28 C          17.9294   38.3215   10.5062 C.ar    1  UNL1        0.0634
     29 C          16.8126   38.0099   11.2790 C.ar    1  UNL1        0.0296
     30 C          15.6965   38.8397   11.1915 C.ar    1  UNL1        0.0634
     31 C          16.8128   40.2122    9.6193 C.ar    1  UNL1        0.2200
     32 C          14.4848   38.5429   11.9988 C.3     1  UNL1        0.0522
     33 N          15.7162   39.9201   10.3679 N.ar    1  UNL1       -0.2179
     34 N          17.9105   39.4105    9.6946 N.ar    1  UNL1       -0.2179
@<TRIPOS>BOND
     1    27    28    1
     2    28    34   ar
     3    29    30   ar
     4    31    33   ar
     5    31    25    1
     6     2     3   ar
     7     4     7   ar
     8     5     1   ar
     9     6     4    1
    10     8     3    1
    11     8     9    1
    12     9    10    1
    13    10    11    1
    14    11    14    1
    15    12    14    1
    16    12     8    1
    17    16    13    1
    18    16    17    1
    19    17    18    1
    20    17    23    1
    21    18    19    1
    22    19    20    1
    23    20    21    1
    24    21    22    1
    25    22    17    1
    26    32    30    1
    27    25     1    1
    28    14    13   am
    29    28    29   ar
    30    30    33   ar
    31    31    34   ar
    32     1     2   ar
    33     3     7   ar
    34     4     5   ar
    35    13    15    2
    36    25    26    1
    37    23    24    1
@<TRIPOS>MOLECULE
MolPort-020-292-534 MCULE-6667989060 PubChem-110265002
 34 37 0 0 0
SMALL
GASTEIGER

@<TRIPOS>ATOM
      1 C           8.2766   39.7284    5.9251 C.ar    1  UNL1        0.0528
      2 C           9.3404   40.4248    6.5034 C.ar    1  UNL1        0.0294
      3 C          10.6293   40.2785    5.9840 C.ar    1  UNL1        0.0611
      4 C           9.8250   38.7684    4.3358 C.ar    1  UNL1        0.0602
      5 C           8.5252   38.8917    4.8292 C.ar    1  UNL1        0.0294
      6 C          10.0968   37.8828    3.1740 C.3     1  UNL1        0.0521
      7 N          10.8422   39.4576    4.9176 N.ar    1  UNL1       -0.2538
      8 C          11.7615   41.0245    6.6079 C.3     1  UNL1        0.0602
      9 C          11.6267   41.0368    8.1321 C.3     1  UNL1        0.0094
     10 C          12.7907   41.7978    8.7632 C.3     1  UNL1        0.0219
     11 C          12.8366   43.2232    8.2213 C.3     1  UNL1        0.0934
     12 C          11.8304   42.4510    6.0629 C.3     1  UNL1        0.0992
     13 C          13.9236   43.8444    6.0285 C.2     1  UNL1        0.2280
     14 N          12.8793   43.1877    6.7616 N.am    1  UNL1       -0.2791
     15 O          13.8971   43.8607    4.7684 O.2     1  UNL1       -0.2748
     16 C          15.0656   44.5082    6.7422 C.3     1  UNL1        0.1121
     17 C          16.3648   43.7002    6.6867 C.3     1  UNL1        0.0970
     18 C          17.3066   44.2680    7.7608 C.3     1  UNL1        0.0274
     19 C          18.2851   43.2140    8.2734 C.3     1  UNL1        0.0024
     20 C          17.5458   42.0478    8.9421 C.3     1  UNL1        0.0002
     21 C          16.1456   41.8011    8.3662 C.3     1  UNL1        0.0024
     22 C          16.0759   42.1992    6.8936 C.3     1  UNL1        0.0274
     23 O          16.9673   43.8706    5.4388 O.3     1  UNL1       -0.3863
     24 H          17.1545   44.8116    5.2960 H       1  UNL1        0.2102
     25 N           6.9627   39.8953    6.4761 N.pl3   1  UNL1       -0.2825
     26 H           6.2223   39.4902    5.9692 H       1  UNL1        0.1551
     27 C           3.5512   41.8600    9.3924 C.3     1  UNL1        0.0522
     28 C           4.9744   41.5417    9.1076 C.ar    1  UNL1        0.0634
     29 C           5.9668   41.9133   10.0124 C.ar    1  UNL1        0.0296
     30 C           7.2894   41.5964    9.7088 C.ar    1  UNL1        0.0634
     31 C           6.6051   40.5852    7.6813 C.ar    1  UNL1        0.2200
     32 C           8.3782   41.9746   10.6468 C.3     1  UNL1        0.0522
     33 N           7.5836   40.9416    8.5553 N.ar    1  UNL1       -0.2179
     34 N           5.3084   40.8881    7.9647 N.ar    1  UNL1       -0.2179
@<TRIPOS>BOND
     1    27    28    1
     2    28    34   ar
     3    29    30   ar
     4    31    33   ar
     5    31    25    1
     6     2     3   ar
     7     4     7   ar
     8     5     1   ar
     9     6     4    1
    10     8     3    1
    11     8     9    1
    12     9    10    1
    13    10    11    1
    14    11    14    1
    15    12    14    1
    16    12     8    1
    17    16    13    1
    18    16    17    1
    19    17    18    1
    20    17    23    1
    21    18    19    1
    22    19    20    1
    23    20    21    1
    24    21    22    1
    25    22    17    1
    26    32    30    1
    27    25     1    1
    28    14    13   am
    29    28    29   ar
    30    30    33   ar
    31    31    34   ar
    32     1     2   ar
    33     3     7   ar
    34     4     5   ar
    35    13    15    2
    36    25    26    1
    37    23    24    1
@<TRIPOS>MOLECULE
MolPort-020-292-534 MCULE-6667989060 PubChem-110265002
 34 37 0 0 0
SMALL
GASTEIGER

@<TRIPOS>ATOM
      1 C          15.7304   41.9147    8.0760 C.ar    1  UNL1        0.0528
      2 C          14.4260   41.4155    8.0971 C.ar    1  UNL1        0.0294
      3 C          13.4200   42.0732    7.3845 C.ar    1  UNL1        0.0611
      4 C          14.9765   43.7046    6.6364 C.ar    1  UNL1        0.0602
      5 C          16.0052   43.0724    7.3364 C.ar    1  UNL1        0.0294
      6 C          15.2599   44.9330    5.8499 C.3     1  UNL1        0.0521
      7 N          13.7157   43.1976    6.6740 N.ar    1  UNL1       -0.2538
      8 C          12.0282   41.5350    7.4128 C.3     1  UNL1        0.0602
      9 C          11.4980   41.3312    5.9919 C.3     1  UNL1        0.0094
     10 C          10.0756   40.7763    6.0291 C.3     1  UNL1        0.0219
     11 C           9.1665   41.7237    6.8059 C.3     1  UNL1        0.0934
     12 C          11.1076   42.4661    8.2016 C.3     1  UNL1        0.0992
     13 C           8.9831   41.7244    9.3243 C.2     1  UNL1        0.2280
     14 N           9.7366   41.9704    8.1280 N.am    1  UNL1       -0.2791
     15 O           9.4714   42.0144   10.4495 O.2     1  UNL1       -0.2748
     16 C           7.6148   41.1098    9.2600 C.3     1  UNL1        0.1121
     17 C           6.5073   42.0475    9.7480 C.3     1  UNL1        0.0970
     18 C           5.3613   41.9779    8.7258 C.3     1  UNL1        0.0274
     19 C           4.0090   42.2810    9.3668 C.3     1  UNL1        0.0024
     20 C           3.6640   41.2508   10.4500 C.3     1  UNL1        0.0002
     21 C           4.8968   40.6540   11.1407 C.3     1  UNL1        0.0024
     22 C           6.0522   41.6520   11.1678 C.3     1  UNL1        0.0274
     23 O           6.9872   43.3582    9.7823 O.3     1  UNL1       -0.3863
     24 H           7.2771   43.6197    8.8943 H       1  UNL1        0.2102
     25 N          16.7458   41.2216    8.8153 N.pl3   1  UNL1       -0.2825
     26 H          17.6649   41.5606    8.7173 H       1  UNL1        0.1551
     27 C          18.5171   37.1492   10.8842 C.3     1  UNL1        0.0522
     28 C          17.4080   38.1193   10.6930 C.ar    1  UNL1        0.0634
     29 C          16.1964   37.9330   11.3555 C.ar    1  UNL1        0.0296
     30 C          15.1812   38.8651   11.1499 C.ar    1  UNL1        0.0634
     31 C          16.5742   40.0912    9.6809 C.ar    1  UNL1        0.2200
     32 C          13.8737   38.7035   11.8372 C.3     1  UNL1        0.0522
     33 N          15.3868   39.9218   10.3210 N.ar    1  UNL1       -0.2179
     34 N          17.5752   39.1886    9.8722 N.ar    1  UNL1       -0.2179
@<TRIPOS>BOND
     1    27    28    1
     2    28    34   ar
     3    29    30   ar
     4    31    33   ar
     5    31    25    1
     6     2     3   ar
     7     4     7   ar
     8     5     1   ar
     9     6     4    1
    10     8     3    1
    11     8     9    1
    12     9    10    1
    13    10    11    1
    14    11    14    1
    15    12    14    1
    16    12     8    1
    17    16    13    1
    18    16    17    1
    19    17    18    1
    20    17    23    1
    21    18    19    1
    22    19    20    1
    23    20    21    1
    24    21    22    1
    25    22    17    1
    26    32    30    1
    27    25     1    1
    28    14    13   am
    29    28    29   ar
    30    30    33   ar
    31    31    34   ar
    32     1     2   ar
    33     3     7   ar
    34     4     5   ar
    35    13    15    2
    36    25    26    1
    37    23    24    1
@<TRIPOS>MOLECULE
MolPort-020-292-534 MCULE-6667989060 PubChem-110265002
 34 37 0 0 0
SMALL
GASTEIGER

@<TRIPOS>ATOM
      1 C          15.5252   41.8579    8.0820 C.ar    1  UNL1        0.0528
      2 C          14.2903   41.3072    8.4330 C.ar    1  UNL1        0.0294
      3 C          13.1298   41.7366    7.7838 C.ar    1  UNL1        0.0611
      4 C          14.3966   43.2419    6.4524 C.ar    1  UNL1        0.0602
      5 C          15.5752   42.8359    7.0802 C.ar    1  UNL1        0.0294
      6 C          14.4414   44.2789    5.3891 C.3     1  UNL1        0.0521
      7 N          13.2080   42.6897    6.8133 N.ar    1  UNL1       -0.2538
      8 C          11.8136   41.1448    8.1650 C.3     1  UNL1        0.0602
      9 C          11.8273   39.6267    7.9740 C.3     1  UNL1        0.0094
     10 C          10.4792   39.0283    8.3701 C.3     1  UNL1        0.0219
     11 C           9.3648   39.6592    7.5410 C.3     1  UNL1        0.0934
     12 C          10.6840   41.7786    7.3532 C.3     1  UNL1        0.0992
     13 C           8.2877   41.8710    8.1104 C.2     1  UNL1        0.2280
     14 N           9.4245   41.1129    7.6716 N.am    1  UNL1       -0.2791
     15 O           8.3426   43.1298    8.1446 O.2     1  UNL1       -0.2748
     16 C           7.0257   41.1843    8.5462 C.3     1  UNL1        0.1121
     17 C           6.1756   42.0291    9.4988 C.3     1  UNL1        0.0970
     18 C           5.2549   42.9085    8.6375 C.3     1  UNL1        0.0274
     19 C           3.9617   43.2631    9.3678 C.3     1  UNL1        0.0024
     20 C           3.1472   42.0057    9.6981 C.3     1  UNL1        0.0002
     21 C           4.0112   40.7561    9.9104 C.3     1  UNL1        0.0024
     22 C           5.3858   41.1226   10.4651 C.3     1  UNL1        0.0274
     23 O           7.0059   42.8642   10.2489 O.3     1  UNL1       -0.3863
     24 H           7.5090   43.4404    9.6523 H       1  UNL1        0.2102
     25 N          16.7023   41.4007    8.7626 N.pl3   1  UNL1       -0.2825
     26 H          17.5104   41.9526    8.6554 H       1  UNL1        0.1551
     27 C          14.7713   38.1679   11.8968 C.3     1  UNL1        0.0522
     28 C          15.9247   38.6559   11.0972 C.ar    1  UNL1        0.0634
     29 C          17.1408   37.9771   11.1409 C.ar    1  UNL1        0.0296
     30 C          18.1981   38.4665   10.3765 C.ar    1  UNL1        0.0634
     31 C          16.8356   40.2309    9.5814 C.ar    1  UNL1        0.2200
     32 C          19.5118   37.7723   10.3946 C.3     1  UNL1        0.0522
     33 N          18.0278   39.5784    9.6145 N.ar    1  UNL1       -0.2179
     34 N          15.7937   39.7643   10.3230 N.ar    1  UNL1       -0.2179
@<TRIPOS>BOND
     1    27    28    1
     2    28    34   ar
     3    29    30   ar
     4    31    33   ar
     5    31    25    1
     6     2     3   ar
     7     4     7   ar
     8     5     1   ar
     9     6     4    1
    10     8     3    1
    11     8     9    1
    12     9    10    1
    13    10    11    1
    14    11    14    1
    15    12    14    1
    16    12     8    1
    17    16    13    1
    18    16    17    1
    19    17    18    1
    20    17    23    1
    21    18    19    1
    22    19    20    1
    23    20    21    1
    24    21    22    1
    25    22    17    1
    26    32    30    1
    27    25     1    1
    28    14    13   am
    29    28    29   ar
    30    30    33   ar
    31    31    34   ar
    32     1     2   ar
    33     3     7   ar
    34     4     5   ar
    35    13    15    2
    36    25    26    1
    37    23    24    1
@<TRIPOS>MOLECULE
MolPort-020-292-534 MCULE-6667989060 PubChem-110265002
 34 37 0 0 0
SMALL
GASTEIGER

@<TRIPOS>ATOM
      1 C           8.1764   41.3665   11.1964 C.ar    1  UNL1        0.0528
      2 C           9.4230   41.2224   10.5829 C.ar    1  UNL1        0.0294
      3 C          10.5626   41.0216   11.3663 C.ar    1  UNL1        0.0611
      4 C           9.2518   41.1051   13.3459 C.ar    1  UNL1        0.0602
      5 C           8.0935   41.3067   12.5937 C.ar    1  UNL1        0.0294
      6 C           9.1721   41.0408   14.8282 C.3     1  UNL1        0.0521
      7 N          10.4525   40.9681   12.7233 N.ar    1  UNL1       -0.2538
      8 C          11.8915   40.8699   10.7041 C.3     1  UNL1        0.0602
      9 C          11.7628   41.0359    9.1883 C.3     1  UNL1        0.0094
     10 C          13.1268   40.8838    8.5185 C.3     1  UNL1        0.0219
     11 C          13.7245   39.5213    8.8561 C.3     1  UNL1        0.0934
     12 C          12.5108   39.5148   11.0457 C.3     1  UNL1        0.0992
     13 C          14.9804   39.0432   10.9939 C.2     1  UNL1        0.2280
     14 N          13.7589   39.3509   10.3065 N.am    1  UNL1       -0.2791
     15 O          14.9700   38.8290   12.2359 O.2     1  UNL1       -0.2748
     16 C          16.2860   38.9838   10.2549 C.3     1  UNL1        0.1121
     17 C          17.1091   37.7348   10.5812 C.3     1  UNL1        0.0970
     18 C          16.9507   36.7585    9.4044 C.3     1  UNL1        0.0274
     19 C          18.1638   35.8427    9.2586 C.3     1  UNL1        0.0024
     20 C          19.4358   36.6481    8.9634 C.3     1  UNL1        0.0002
     21 C          19.4160   38.0618    9.5584 C.3     1  UNL1        0.0024
     22 C          18.5828   38.1114   10.8371 C.3     1  UNL1        0.0274
     23 O          16.5984   37.1263   11.7294 O.3     1  UNL1       -0.3863
     24 H          15.6708   36.8840   11.5816 H       1  UNL1        0.2102
     25 N           7.0214   41.5715   10.3707 N.pl3   1  UNL1       -0.2825
     26 H           6.1677   41.2294   10.7220 H       1  UNL1        0.1551
     27 C           8.7044   42.0828    5.7981 C.3     1  UNL1        0.0522
     28 C           7.7652   42.4838    6.8775 C.ar    1  UNL1        0.0634
     29 C           6.8295   43.4908    6.6493 C.ar    1  UNL1        0.0296
     30 C           5.9665   43.8378    7.6870 C.ar    1  UNL1        0.0634
     31 C           6.9689   42.2181    9.0918 C.ar    1  UNL1        0.2200
     32 C           4.9539   44.9065    7.4853 C.3     1  UNL1        0.0522
     33 N           6.0509   43.1989    8.8831 N.ar    1  UNL1       -0.2179
     34 N           7.8186   41.8685    8.0872 N.ar    1  UNL1       -0.2179
@<TRIPOS>BOND
     1    27    28    1
     2    28    34   ar
     3    29    30   ar
     4    31    33   ar
     5    31    25    1
     6     2     3   ar
     7     4     7   ar
     8     5     1   ar
     9     6     4    1
    10     8     3    1
    11     8     9    1
    12     9    10    1
    13    10    11    1
    14    11    14    1
    15    12    14    1
    16    12     8    1
    17    16    13    1
    18    16    17    1
    19    17    18    1
    20    17    23    1
    21    18    19    1
    22    19    20    1
    23    20    21    1
    24    21    22    1
    25    22    17    1
    26    32    30    1
    27    25     1    1
    28    14    13   am
    29    28    29   ar
    30    30    33   ar
    31    31    34   ar
    32     1     2   ar
    33     3     7   ar
    34     4     5   ar
    35    13    15    2
    36    25    26    1
    37    23    24    1
@<TRIPOS>MOLECULE
MolPort-020-292-534 MCULE-6667989060 PubChem-110265002
 34 37 0 0 0
SMALL
GASTEIGER

@<TRIPOS>ATOM
      1 C           7.8938   41.7101   11.2344 C.ar    1  UNL1        0.0528
      2 C           9.0603   41.4585   10.5085 C.ar    1  UNL1        0.0294
      3 C          10.2320   41.1005   11.1807 C.ar    1  UNL1        0.0611
      4 C           9.1099   41.2388   13.2701 C.ar    1  UNL1        0.0602
      5 C           7.9224   41.5982   12.6306 C.ar    1  UNL1        0.0294
      6 C           9.1484   41.1183   14.7506 C.3     1  UNL1        0.0521
      7 N          10.2311   40.9996   12.5394 N.ar    1  UNL1       -0.2538
      8 C          11.4751   40.8345   10.3987 C.3     1  UNL1        0.0602
      9 C          11.1689   40.7718    8.9007 C.3     1  UNL1        0.0094
     10 C          12.4460   40.5039    8.1073 C.3     1  UNL1        0.0219
     11 C          13.0866   39.2006    8.5748 C.3     1  UNL1        0.0934
     12 C          12.1376   39.5389   10.8666 C.3     1  UNL1        0.0992
     13 C          14.5867   39.0346   10.5992 C.2     1  UNL1        0.2280
     14 N          13.2914   39.2502   10.0203 N.am    1  UNL1       -0.2791
     15 O          14.7229   39.0102   11.8520 O.2     1  UNL1       -0.2748
     16 C          15.7972   38.8486    9.7307 C.3     1  UNL1        0.1121
     17 C          16.7805   37.8107   10.2783 C.3     1  UNL1        0.0970
     18 C          17.1857   36.8984    9.1093 C.3     1  UNL1        0.0274
     19 C          18.5782   36.3044    9.3083 C.3     1  UNL1        0.0024
     20 C          19.6474   37.4029    9.3694 C.3     1  UNL1        0.0002
     21 C          19.1259   38.7332    9.9274 C.3     1  UNL1        0.0024
     22 C          17.9942   38.5071   10.9273 C.3     1  UNL1        0.0274
     23 O          16.1443   37.0301   11.2454 O.3     1  UNL1       -0.3863
     24 H          15.3781   36.5860   10.8497 H       1  UNL1        0.2102
     25 N           6.7037   42.0757   10.5217 N.pl3   1  UNL1       -0.2825
     26 H           5.8511   41.9263   10.9906 H       1  UNL1        0.1551
     27 C           4.5764   45.1334    7.3393 C.3     1  UNL1        0.0522
     28 C           5.6029   44.1041    7.6473 C.ar    1  UNL1        0.0634
     29 C           6.4833   43.6782    6.6548 C.ar    1  UNL1        0.0296
     30 C           7.4315   42.7114    6.9837 C.ar    1  UNL1        0.0634
     31 C           6.6149   42.6341    9.2038 C.ar    1  UNL1        0.2200
     32 C           8.3893   42.2297    5.9547 C.3     1  UNL1        0.0522
     33 N           7.4804   42.2093    8.2452 N.ar    1  UNL1       -0.2179
     34 N           5.6833   43.5781    8.8970 N.ar    1  UNL1       -0.2179
@<TRIPOS>BOND
     1    27    28    1
     2    28    34   ar
     3    29    30   ar
     4    31    33   ar
     5    31    25    1
     6     2     3   ar
     7     4     7   ar
     8     5     1   ar
     9     6     4    1
    10     8     3    1
    11     8     9    1
    12     9    10    1
    13    10    11    1
    14    11    14    1
    15    12    14    1
    16    12     8    1
    17    16    13    1
    18    16    17    1
    19    17    18    1
    20    17    23    1
    21    18    19    1
    22    19    20    1
    23    20    21    1
    24    21    22    1
    25    22    17    1
    26    32    30    1
    27    25     1    1
    28    14    13   am
    29    28    29   ar
    30    30    33   ar
    31    31    34   ar
    32     1     2   ar
    33     3     7   ar
    34     4     5   ar
    35    13    15    2
    36    25    26    1
    37    23    24    1
@<TRIPOS>MOLECULE
MolPort-020-292-534 MCULE-6667989060 PubChem-110265002
 34 37 0 0 0
SMALL
GASTEIGER

@<TRIPOS>ATOM
      1 C          16.7159   39.2893    9.9477 C.ar    1  UNL1        0.0528
      2 C          15.3229   39.2361    9.8588 C.ar    1  UNL1        0.0294
      3 C          14.6214   40.3117    9.3079 C.ar    1  UNL1        0.0611
      4 C          16.6538   41.4840    8.9355 C.ar    1  UNL1        0.0602
      5 C          17.3856   40.4275    9.4799 C.ar    1  UNL1        0.0294
      6 C          17.3568   42.6946    8.4375 C.3     1  UNL1        0.0521
      7 N          15.2986   41.4063    8.8611 N.ar    1  UNL1       -0.2538
      8 C          13.1329   40.2485    9.2174 C.3     1  UNL1        0.0602
      9 C          12.6060   38.9633    9.8594 C.3     1  UNL1        0.0094
     10 C          11.0826   38.9081    9.7669 C.3     1  UNL1        0.0219
     11 C          10.6453   38.9925    8.3077 C.3     1  UNL1        0.0934
     12 C          12.6782   40.3477    7.7614 C.3     1  UNL1        0.0992
     13 C          10.4105   41.1685    7.0485 C.2     1  UNL1        0.2280
     14 N          11.2295   40.1818    7.6927 N.am    1  UNL1       -0.2791
     15 O          10.9447   42.1480    6.4621 O.2     1  UNL1       -0.2748
     16 C           8.9132   41.0610    7.0716 C.3     1  UNL1        0.1121
     17 C           8.2826   41.6700    8.3268 C.3     1  UNL1        0.0970
     18 C           9.2908   42.6743    8.9079 C.3     1  UNL1        0.0274
     19 C           8.5974   43.7891    9.6875 C.3     1  UNL1        0.0024
     20 C           7.6697   44.6077    8.7803 C.3     1  UNL1        0.0002
     21 C           7.0864   43.7998    7.6141 C.3     1  UNL1        0.0024
     22 C           6.9293   42.3272    7.9862 C.3     1  UNL1        0.0274
     23 O           8.0656   40.6669    9.2735 O.3     1  UNL1       -0.3863
     24 H           8.9100   40.2449    9.4968 H       1  UNL1        0.2102
     25 N          17.4135   38.1726   10.5170 N.pl3   1  UNL1       -0.2825
     26 H          17.7486   38.2896   11.4352 H       1  UNL1        0.1551
     27 C          16.7855   35.0447    6.7988 C.3     1  UNL1        0.0522
     28 C          17.3899   35.3763    8.1151 C.ar    1  UNL1        0.0634
     29 C          18.2169   34.4552    8.7548 C.ar    1  UNL1        0.0296
     30 C          18.7643   34.8041    9.9878 C.ar    1  UNL1        0.0634
     31 C          17.6782   36.9052    9.9005 C.ar    1  UNL1        0.2200
     32 C          19.6515   33.8507   10.7035 C.3     1  UNL1        0.0522
     33 N          18.4870   36.0161   10.5358 N.ar    1  UNL1       -0.2179
     34 N          17.1363   36.5780    8.6952 N.ar    1  UNL1       -0.2179
@<TRIPOS>BOND
     1    27    28    1
     2    28    34   ar
     3    29    30   ar
     4    31    33   ar
     5    31    25    1
     6     2     3   ar
     7     4     7   ar
     8     5     1   ar
     9     6     4    1
    10     8     3    1
    11     8     9    1
    12     9    10    1
    13    10    11    1
    14    11    14    1
    15    12    14    1
    16    12     8    1
    17    16    13    1
    18    16    17    1
    19    17    18    1
    20    17    23    1
    21    18    19    1
    22    19    20    1
    23    20    21    1
    24    21    22    1
    25    22    17    1
    26    32    30    1
    27    25     1    1
    28    14    13   am
    29    28    29   ar
    30    30    33   ar
    31    31    34   ar
    32     1     2   ar
    33     3     7   ar
    34     4     5   ar
    35    13    15    2
    36    25    26    1
    37    23    24    1
@<TRIPOS>MOLECULE
MolPort-020-292-534 MCULE-6667989060 PubChem-110265002
 34 37 0 0 0
SMALL
GASTEIGER

@<TRIPOS>ATOM
      1 C          13.5762   38.8016    9.4382 C.ar    1  UNL1        0.0528
      2 C          12.4266   39.4225    8.9442 C.ar    1  UNL1        0.0294
      3 C          11.1991   38.7575    9.0037 C.ar    1  UNL1        0.0611
      4 C          12.2327   36.8808   10.0301 C.ar    1  UNL1        0.0602
      5 C          13.4745   37.5164    9.9866 C.ar    1  UNL1        0.0294
      6 C          12.1167   35.5176   10.6098 C.3     1  UNL1        0.0521
      7 N          11.1296   37.5078    9.5420 N.ar    1  UNL1       -0.2538
      8 C           9.9752   39.4264    8.4725 C.3     1  UNL1        0.0602
      9 C           9.4376   38.6793    7.2501 C.3     1  UNL1        0.0094
     10 C           8.1832   39.3669    6.7153 C.3     1  UNL1        0.0219
     11 C           8.4954   40.8169    6.3582 C.3     1  UNL1        0.0934
     12 C          10.2682   40.8858    8.1246 C.3     1  UNL1        0.0992
     13 C           8.5205   42.6924    8.0487 C.2     1  UNL1        0.2280
     14 N           9.0859   41.4865    7.5145 N.am    1  UNL1       -0.2791
     15 O           9.0909   43.2901    9.0006 O.2     1  UNL1       -0.2748
     16 C           7.2420   43.2539    7.4972 C.3     1  UNL1        0.1121
     17 C           6.2577   43.6961    8.5832 C.3     1  UNL1        0.0970
     18 C           4.9644   44.1389    7.8800 C.3     1  UNL1        0.0274
     19 C           3.7401   43.9554    8.7739 C.3     1  UNL1        0.0024
     20 C           3.5329   42.4791    9.1362 C.3     1  UNL1        0.0002
     21 C           4.8368   41.6725    9.1843 C.3     1  UNL1        0.0024
     22 C           6.0164   42.5531    9.5905 C.3     1  UNL1        0.0274
     23 O           6.7824   44.7926    9.2700 O.3     1  UNL1       -0.3863
     24 H           6.9391   45.5195    8.6472 H       1  UNL1        0.2102
     25 N          14.8245   39.5047    9.3661 N.pl3   1  UNL1       -0.2825
     26 H          15.5730   39.1185    9.8759 H       1  UNL1        0.1551
     27 C          17.8544   43.1940    8.2651 C.3     1  UNL1        0.0522
     28 C          16.5531   42.4990    8.0874 C.ar    1  UNL1        0.0634
     29 C          15.6017   43.0137    7.2091 C.ar    1  UNL1        0.0296
     30 C          14.3940   42.3325    7.0705 C.ar    1  UNL1        0.0634
     31 C          15.1062   40.7063    8.6357 C.ar    1  UNL1        0.2200
     32 C          13.3524   42.8476    6.1443 C.3     1  UNL1        0.0522
     33 N          14.1688   41.1972    7.7821 N.ar    1  UNL1       -0.2179
     34 N          16.2908   41.3611    8.7813 N.ar    1  UNL1       -0.2179
@<TRIPOS>BOND
     1    27    28    1
     2    28    34   ar
     3    29    30   ar
     4    31    33   ar
     5    31    25    1
     6     2     3   ar
     7     4     7   ar
     8     5     1   ar
     9     6     4    1
    10     8     3    1
    11     8     9    1
    12     9    10    1
    13    10    11    1
    14    11    14    1
    15    12    14    1
    16    12     8    1
    17    16    13    1
    18    16    17    1
    19    17    18    1
    20    17    23    1
    21    18    19    1
    22    19    20    1
    23    20    21    1
    24    21    22    1
    25    22    17    1
    26    32    30    1
    27    25     1    1
    28    14    13   am
    29    28    29   ar
    30    30    33   ar
    31    31    34   ar
    32     1     2   ar
    33     3     7   ar
    34     4     5   ar
    35    13    15    2
    36    25    26    1
    37    23    24    1
@<TRIPOS>MOLECULE
MolPort-020-292-534 MCULE-6667989060 PubChem-110265002
 34 37 0 0 0
SMALL
GASTEIGER

@<TRIPOS>ATOM
      1 C          13.8586   40.9233    8.7887 C.ar    1  UNL1        0.0528
      2 C          12.6018   41.3171    9.2541 C.ar    1  UNL1        0.0294
      3 C          11.8805   42.2933    8.5618 C.ar    1  UNL1        0.0611
      4 C          13.6267   42.4913    6.9633 C.ar    1  UNL1        0.0602
      5 C          14.3738   41.5190    7.6301 C.ar    1  UNL1        0.0294
      6 C          14.1664   43.1281    5.7340 C.3     1  UNL1        0.0521
      7 N          12.4062   42.8562    7.4379 N.ar    1  UNL1       -0.2538
      8 C          10.5389   42.7103    9.0656 C.3     1  UNL1        0.0602
      9 C          10.5549   42.8584   10.5885 C.3     1  UNL1        0.0094
     10 C           9.1804   43.2894   11.0958 C.3     1  UNL1        0.0219
     11 C           8.1254   42.2726   10.6708 C.3     1  UNL1        0.0934
     12 C           9.4676   41.7088    8.6341 C.3     1  UNL1        0.0992
     13 C           7.0285   42.2729    8.3964 C.2     1  UNL1        0.2280
     14 N           8.1860   42.0846    9.2234 N.am    1  UNL1       -0.2791
     15 O           7.0891   42.0333    7.1604 O.2     1  UNL1       -0.2748
     16 C           5.7367   42.7673    8.9805 C.3     1  UNL1        0.1121
     17 C           4.7451   41.6435    9.2930 C.3     1  UNL1        0.0970
     18 C           5.2665   40.9010   10.5339 C.3     1  UNL1        0.0274
     19 C           4.1328   40.2588   11.3299 C.3     1  UNL1        0.0024
     20 C           3.1555   41.3172   11.8578 C.3     1  UNL1        0.0002
     21 C           3.0644   42.5631   10.9676 C.3     1  UNL1        0.0024
     22 C           3.3288   42.2169    9.5041 C.3     1  UNL1        0.0274
     23 O           4.7077   40.7442    8.2256 O.3     1  UNL1       -0.3863
     24 H           5.5935   40.3757    8.0821 H       1  UNL1        0.2102
     25 N          14.5796   39.9191    9.5166 N.pl3   1  UNL1       -0.2825
     26 H          15.2913   40.2412   10.1158 H       1  UNL1        0.1551
     27 C          11.9066   35.9662   10.6265 C.3     1  UNL1        0.0522
     28 C          13.1067   36.5740    9.9954 C.ar    1  UNL1        0.0634
     29 C          14.0441   35.7650    9.3564 C.ar    1  UNL1        0.0296
     30 C          15.1557   36.3734    8.7769 C.ar    1  UNL1        0.0634
     31 C          14.3814   38.4996    9.4707 C.ar    1  UNL1        0.2200
     32 C          16.1791   35.5470    8.0856 C.3     1  UNL1        0.0522
     33 N          15.3039   37.7223    8.8438 N.ar    1  UNL1       -0.2179
     34 N          13.2902   37.9190   10.0414 N.ar    1  UNL1       -0.2179
@<TRIPOS>BOND
     1    27    28    1
     2    28    34   ar
     3    29    30   ar
     4    31    33   ar
     5    31    25    1
     6     2     3   ar
     7     4     7   ar
     8     5     1   ar
     9     6     4    1
    10     8     3    1
    11     8     9    1
    12     9    10    1
    13    10    11    1
    14    11    14    1
    15    12    14    1
    16    12     8    1
    17    16    13    1
    18    16    17    1
    19    17    18    1
    20    17    23    1
    21    18    19    1
    22    19    20    1
    23    20    21    1
    24    21    22    1
    25    22    17    1
    26    32    30    1
    27    25     1    1
    28    14    13   am
    29    28    29   ar
    30    30    33   ar
    31    31    34   ar
    32     1     2   ar
    33     3     7   ar
    34     4     5   ar
    35    13    15    2
    36    25    26    1
    37    23    24    1
