@<TRIPOS>MOLECULE
Molport-052-049-202 MCULE-4619615168 PubChem-110093683
 28 31 0 0 0
SMALL
GASTEIGER

@<TRIPOS>ATOM
      1 C           8.9597   42.9234   11.1050 C.3     1  UNL1        0.0220
      2 C          10.1074   42.5885   10.1554 C.3     1  UNL1        0.0094
      3 C           9.5724   42.3265    8.7457 C.3     1  UNL1        0.0602
      4 C           8.5326   41.2048    8.7622 C.3     1  UNL1        0.0996
      5 C           7.9465   41.7831   11.1197 C.3     1  UNL1        0.0937
      6 C           6.1401   41.7014    9.3384 C.2     1  UNL1        0.2490
      7 N           7.5041   41.5040    9.7550 N.am    1  UNL1       -0.2757
      8 O           5.8998   41.9403    8.1227 O.2     1  UNL1       -0.2699
      9 C           5.0028   41.6243   10.2858 C.ar    1  UNL1        0.0536
     10 C           4.0125   42.6190   10.2662 C.ar    1  UNL1        0.0045
     11 C           2.9183   42.5501   11.1335 C.ar    1  UNL1        0.0001
     12 C           2.7997   41.4807   12.0244 C.ar    1  UNL1        0.0000
     13 C           3.7731   40.4790   12.0453 C.ar    1  UNL1        0.0001
     14 C           4.8666   40.5492   11.1774 C.ar    1  UNL1        0.0045
     15 C          10.6852   42.0120    7.7973 C.ar    1  UNL1        0.0617
     16 C          13.0320   41.9056    7.3960 C.ar    1  UNL1        0.1328
     17 C          12.7989   41.4489    6.0917 C.ar    1  UNL1        0.0344
     18 C          11.4890   41.2753    5.6452 C.ar    1  UNL1        0.0041
     19 C          10.4226   41.5569    6.4982 C.ar    1  UNL1        0.0149
     20 N          11.9726   42.1727    8.2078 N.ar    1  UNL1       -0.2348
     21 N          14.3593   42.1011    7.9046 N.pl3   1  UNL1       -0.2821
     22 H          14.5675   41.6605    8.7600 H       1  UNL1        0.1551
     23 C          15.4173   42.8645    7.3098 C.ar    1  UNL1        0.1526
     24 C          17.7247   43.3204    7.0005 C.ar    1  UNL1        0.1210
     25 C          17.4031   44.3675    6.1361 C.ar    1  UNL1        0.1196
     26 C          15.0993   43.9133    6.4440 C.ar    1  UNL1        0.1332
     27 N          16.7265   42.5931    7.5675 N.ar    1  UNL1       -0.2258
     28 N          16.0973   44.6411    5.8767 N.ar    1  UNL1       -0.2378
@<TRIPOS>BOND
     1     1     2    1
     2     2     3    1
     3     3     4    1
     4     3    15    1
     5     4     7    1
     6     5     7    1
     7     5     1    1
     8     6     9    1
     9    10    11   ar
    10    12    13   ar
    11    14     9   ar
    12    16    20   ar
    13    16    21    1
    14    17    18   ar
    15    19    15   ar
    16    24    27   ar
    17    25    28   ar
    18    26    23   ar
    19     7     6   am
    20    21    23    1
    21     6     8    2
    22     9    10   ar
    23    11    12   ar
    24    13    14   ar
    25    15    20   ar
    26    16    17   ar
    27    18    19   ar
    28    23    27   ar
    29    24    25   ar
    30    26    28   ar
    31    21    22    1
@<TRIPOS>MOLECULE
Molport-052-049-202 MCULE-4619615168 PubChem-110093683
 28 31 0 0 0
SMALL
GASTEIGER

@<TRIPOS>ATOM
      1 C           9.2034   43.9023   10.3896 C.3     1  UNL1        0.0220
      2 C          10.5666   43.2205   10.4774 C.3     1  UNL1        0.0094
      3 C          10.5988   41.9780    9.5845 C.3     1  UNL1        0.0602
      4 C           9.4783   41.0091    9.9664 C.3     1  UNL1        0.0996
      5 C           8.1049   42.9238   10.7933 C.3     1  UNL1        0.0937
      6 C           7.1598   41.3300    9.0585 C.2     1  UNL1        0.2490
      7 N           8.2005   41.7163    9.9754 N.am    1  UNL1       -0.2757
      8 O           7.4590   40.6275    8.0537 O.2     1  UNL1       -0.2699
      9 C           5.7436   41.7199    9.2567 C.ar    1  UNL1        0.0536
     10 C           4.8654   40.8418    9.9111 C.ar    1  UNL1        0.0045
     11 C           3.5327   41.2020   10.1313 C.ar    1  UNL1        0.0001
     12 C           3.0668   42.4483    9.7056 C.ar    1  UNL1        0.0000
     13 C           3.9342   43.3350    9.0633 C.ar    1  UNL1        0.0001
     14 C           5.2666   42.9734    8.8439 C.ar    1  UNL1        0.0045
     15 C          11.9330   41.3053    9.6457 C.ar    1  UNL1        0.0617
     16 C          14.1380   41.1011    8.7648 C.ar    1  UNL1        0.1328
     17 C          14.4306   40.0997    9.7007 C.ar    1  UNL1        0.0344
     18 C          13.4549   39.7041   10.6155 C.ar    1  UNL1        0.0041
     19 C          12.1977   40.3066   10.5924 C.ar    1  UNL1        0.0149
     20 N          12.9027   41.6726    8.7645 N.ar    1  UNL1       -0.2348
     21 N          15.1052   41.5446    7.8023 N.pl3   1  UNL1       -0.2821
     22 H          15.8566   40.9333    7.6261 H       1  UNL1        0.1551
     23 C          15.1031   42.7760    7.0677 C.ar    1  UNL1        0.1526
     24 C          16.1689   44.7788    6.3745 C.ar    1  UNL1        0.1210
     25 C          15.0371   45.1267    5.6362 C.ar    1  UNL1        0.1196
     26 C          13.9722   43.1276    6.3275 C.ar    1  UNL1        0.1332
     27 N          16.1771   43.6130    7.0729 N.ar    1  UNL1       -0.2258
     28 N          13.9634   44.2936    5.6288 N.ar    1  UNL1       -0.2378
@<TRIPOS>BOND
     1     1     2    1
     2     2     3    1
     3     3     4    1
     4     3    15    1
     5     4     7    1
     6     5     7    1
     7     5     1    1
     8     6     9    1
     9    10    11   ar
    10    12    13   ar
    11    14     9   ar
    12    16    20   ar
    13    16    21    1
    14    17    18   ar
    15    19    15   ar
    16    24    27   ar
    17    25    28   ar
    18    26    23   ar
    19     7     6   am
    20    21    23    1
    21     6     8    2
    22     9    10   ar
    23    11    12   ar
    24    13    14   ar
    25    15    20   ar
    26    16    17   ar
    27    18    19   ar
    28    23    27   ar
    29    24    25   ar
    30    26    28   ar
    31    21    22    1
@<TRIPOS>MOLECULE
Molport-052-049-202 MCULE-4619615168 PubChem-110093683
 28 31 0 0 0
SMALL
GASTEIGER

@<TRIPOS>ATOM
      1 C          10.2130   38.9483    8.3816 C.3     1  UNL1        0.0220
      2 C          11.7340   39.0341    8.4830 C.3     1  UNL1        0.0094
      3 C          12.1413   39.7771    9.7575 C.3     1  UNL1        0.0602
      4 C          11.5123   41.1709    9.7949 C.3     1  UNL1        0.0996
      5 C           9.6101   40.3494    8.4011 C.3     1  UNL1        0.0937
      6 C           9.1648   41.4811   10.6291 C.2     1  UNL1        0.2490
      7 N          10.0702   41.0637    9.5903 N.am    1  UNL1       -0.2757
      8 O           9.6036   41.6202   11.8041 O.2     1  UNL1       -0.2699
      9 C           7.7337   41.7639   10.3669 C.ar    1  UNL1        0.0536
     10 C           6.7637   41.3669   11.3008 C.ar    1  UNL1        0.0045
     11 C           5.4114   41.6478   11.0845 C.ar    1  UNL1        0.0001
     12 C           5.0165   42.3360    9.9347 C.ar    1  UNL1        0.0000
     13 C           5.9737   42.7459    9.0037 C.ar    1  UNL1        0.0001
     14 C           7.3255   42.4643    9.2214 C.ar    1  UNL1        0.0045
     15 C          13.6295   39.8572    9.8818 C.ar    1  UNL1        0.0617
     16 C          15.6745   40.8152    9.1202 C.ar    1  UNL1        0.1328
     17 C          16.3907   40.0559   10.0555 C.ar    1  UNL1        0.0344
     18 C          15.7078   39.1899   10.9093 C.ar    1  UNL1        0.0041
     19 C          14.3198   39.0858   10.8263 C.ar    1  UNL1        0.0149
     20 N          14.3200   40.6943    9.0608 N.ar    1  UNL1       -0.2348
     21 N          16.3281   41.7204    8.2192 N.pl3   1  UNL1       -0.2821
     22 H          17.3105   41.6663    8.1835 H       1  UNL1        0.1551
     23 C          15.7147   42.6950    7.3648 C.ar    1  UNL1        0.1526
     24 C          15.7484   44.7871    6.2469 C.ar    1  UNL1        0.1210
     25 C          14.4838   44.5259    5.7179 C.ar    1  UNL1        0.1196
     26 C          14.4491   42.4372    6.8334 C.ar    1  UNL1        0.1332
     27 N          16.3351   43.8674    7.0574 N.ar    1  UNL1       -0.2258
     28 N          13.8617   43.3567    6.0227 N.ar    1  UNL1       -0.2378
@<TRIPOS>BOND
     1     1     2    1
     2     2     3    1
     3     3     4    1
     4     3    15    1
     5     4     7    1
     6     5     7    1
     7     5     1    1
     8     6     9    1
     9    10    11   ar
    10    12    13   ar
    11    14     9   ar
    12    16    20   ar
    13    16    21    1
    14    17    18   ar
    15    19    15   ar
    16    24    27   ar
    17    25    28   ar
    18    26    23   ar
    19     7     6   am
    20    21    23    1
    21     6     8    2
    22     9    10   ar
    23    11    12   ar
    24    13    14   ar
    25    15    20   ar
    26    16    17   ar
    27    18    19   ar
    28    23    27   ar
    29    24    25   ar
    30    26    28   ar
    31    21    22    1
@<TRIPOS>MOLECULE
Molport-052-049-202 MCULE-4619615168 PubChem-110093683
 28 31 0 0 0
SMALL
GASTEIGER

@<TRIPOS>ATOM
      1 C           8.2475   39.9037    6.9888 C.3     1  UNL1        0.0220
      2 C           9.7640   40.0783    7.0203 C.3     1  UNL1        0.0094
      3 C          10.2237   40.4862    8.4219 C.3     1  UNL1        0.0602
      4 C           9.5174   41.7665    8.8709 C.3     1  UNL1        0.0996
      5 C           7.5654   41.1979    7.4210 C.3     1  UNL1        0.0937
      6 C           7.2272   41.6598    9.8938 C.2     1  UNL1        0.2490
      7 N           8.0727   41.6049    8.7298 N.am    1  UNL1       -0.2757
      8 O           7.7466   41.5163   11.0350 O.2     1  UNL1       -0.2699
      9 C           5.7658   41.8891    9.8020 C.ar    1  UNL1        0.0536
     10 C           5.2819   43.0579    9.1934 C.ar    1  UNL1        0.0045
     11 C           3.9070   43.2802    9.0733 C.ar    1  UNL1        0.0001
     12 C           3.0016   42.3313    9.5544 C.ar    1  UNL1        0.0000
     13 C           3.4712   41.1593   10.1519 C.ar    1  UNL1        0.0001
     14 C           4.8464   40.9384   10.2711 C.ar    1  UNL1        0.0045
     15 C          11.7096   40.6466    8.4758 C.ar    1  UNL1        0.0617
     16 C          13.6565   41.7488    7.6544 C.ar    1  UNL1        0.1328
     17 C          14.4609   40.9966    8.5212 C.ar    1  UNL1        0.0344
     18 C          13.8718   40.0607    9.3713 C.ar    1  UNL1        0.0041
     19 C          12.4893   39.8806    9.3526 C.ar    1  UNL1        0.0149
     20 N          12.3095   41.5528    7.6569 N.ar    1  UNL1       -0.2348
     21 N          14.2117   42.7238    6.7602 N.pl3   1  UNL1       -0.2821
     22 H          13.6027   43.0840    6.0756 H       1  UNL1        0.1551
     23 C          15.5518   43.2338    6.7492 C.ar    1  UNL1        0.1526
     24 C          17.6196   43.6536    7.8334 C.ar    1  UNL1        0.1210
     25 C          18.1166   44.2309    6.6643 C.ar    1  UNL1        0.1196
     26 C          16.0527   43.8123    5.5809 C.ar    1  UNL1        0.1332
     27 N          16.3502   43.1685    7.8502 N.ar    1  UNL1       -0.2258
     28 N          17.3222   44.2977    5.5635 N.ar    1  UNL1       -0.2378
@<TRIPOS>BOND
     1     1     2    1
     2     2     3    1
     3     3     4    1
     4     3    15    1
     5     4     7    1
     6     5     7    1
     7     5     1    1
     8     6     9    1
     9    10    11   ar
    10    12    13   ar
    11    14     9   ar
    12    16    20   ar
    13    16    21    1
    14    17    18   ar
    15    19    15   ar
    16    24    27   ar
    17    25    28   ar
    18    26    23   ar
    19     7     6   am
    20    21    23    1
    21     6     8    2
    22     9    10   ar
    23    11    12   ar
    24    13    14   ar
    25    15    20   ar
    26    16    17   ar
    27    18    19   ar
    28    23    27   ar
    29    24    25   ar
    30    26    28   ar
    31    21    22    1
@<TRIPOS>MOLECULE
Molport-052-049-202 MCULE-4619615168 PubChem-110093683
 28 31 0 0 0
SMALL
GASTEIGER

@<TRIPOS>ATOM
      1 C          19.6358   37.3918   10.5811 C.3     1  UNL1        0.0220
      2 C          18.6514   38.2763    9.8197 C.3     1  UNL1        0.0094
      3 C          17.3693   38.4683   10.6332 C.3     1  UNL1        0.0602
      4 C          16.7383   37.1171   10.9740 C.3     1  UNL1        0.0996
      5 C          18.9918   36.0444   10.8923 C.3     1  UNL1        0.0937
      6 C          17.5397   35.8080   12.9607 C.2     1  UNL1        0.2490
      7 N          17.7343   36.2563   11.6064 N.am    1  UNL1       -0.2757
      8 O          16.7049   36.4104   13.6908 O.2     1  UNL1       -0.2699
      9 C          18.2785   34.6553   13.5281 C.ar    1  UNL1        0.0536
     10 C          18.2418   34.4182   14.9113 C.ar    1  UNL1        0.0045
     11 C          18.9102   33.3211   15.4626 C.ar    1  UNL1        0.0001
     12 C          19.6162   32.4453   14.6344 C.ar    1  UNL1        0.0000
     13 C          19.6507   32.6646   13.2554 C.ar    1  UNL1        0.0001
     14 C          18.9817   33.7620   12.7055 C.ar    1  UNL1        0.0045
     15 C          16.3986   39.3458    9.9092 C.ar    1  UNL1        0.0617
     16 C          14.1894   39.6588    9.0718 C.ar    1  UNL1        0.1328
     17 C          14.5453   40.9198    8.5744 C.ar    1  UNL1        0.0344
     18 C          15.8465   41.3895    8.7522 C.ar    1  UNL1        0.0041
     19 C          16.7823   40.6026    9.4223 C.ar    1  UNL1        0.0149
     20 N          15.1227   38.9114    9.7222 N.ar    1  UNL1       -0.2348
     21 N          12.8653   39.1289    8.9158 N.pl3   1  UNL1       -0.2821
     22 H          12.8019   38.1694    8.7044 H       1  UNL1        0.1551
     23 C          11.6235   39.8364    9.0325 C.ar    1  UNL1        0.1526
     24 C           9.7235   40.8657    8.0536 C.ar    1  UNL1        0.1210
     25 C           9.2461   41.1940    9.3230 C.ar    1  UNL1        0.1196
     26 C          11.1424   40.1667   10.3014 C.ar    1  UNL1        0.1332
     27 N          10.8998   40.1952    7.9363 N.ar    1  UNL1       -0.2258
     28 N           9.9660   40.8373   10.4192 N.ar    1  UNL1       -0.2378
@<TRIPOS>BOND
     1     1     2    1
     2     2     3    1
     3     3     4    1
     4     3    15    1
     5     4     7    1
     6     5     7    1
     7     5     1    1
     8     6     9    1
     9    10    11   ar
    10    12    13   ar
    11    14     9   ar
    12    16    20   ar
    13    16    21    1
    14    17    18   ar
    15    19    15   ar
    16    24    27   ar
    17    25    28   ar
    18    26    23   ar
    19     7     6   am
    20    21    23    1
    21     6     8    2
    22     9    10   ar
    23    11    12   ar
    24    13    14   ar
    25    15    20   ar
    26    16    17   ar
    27    18    19   ar
    28    23    27   ar
    29    24    25   ar
    30    26    28   ar
    31    21    22    1
@<TRIPOS>MOLECULE
Molport-052-049-202 MCULE-4619615168 PubChem-110093683
 28 31 0 0 0
SMALL
GASTEIGER

@<TRIPOS>ATOM
      1 C          12.4103   35.5832   10.2429 C.3     1  UNL1        0.0220
      2 C          11.9895   37.0450   10.1132 C.3     1  UNL1        0.0094
      3 C          12.6059   37.6669    8.8579 C.3     1  UNL1        0.0602
      4 C          14.1299   37.5378    8.8836 C.3     1  UNL1        0.0996
      5 C          13.9318   35.4813   10.2862 C.3     1  UNL1        0.0937
      6 C          15.2368   35.4215    8.1099 C.2     1  UNL1        0.2490
      7 N          14.5001   36.1440    9.1141 N.am    1  UNL1       -0.2757
      8 O          15.2698   35.8727    6.9317 O.2     1  UNL1       -0.2699
      9 C          15.9685   34.1684    8.4116 C.ar    1  UNL1        0.0536
     10 C          17.3190   34.2254    8.7903 C.ar    1  UNL1        0.0045
     11 C          18.0193   33.0570    9.1045 C.ar    1  UNL1        0.0001
     12 C          17.3731   31.8197    9.0506 C.ar    1  UNL1        0.0000
     13 C          16.0264   31.7515    8.6859 C.ar    1  UNL1        0.0001
     14 C          15.3274   32.9207    8.3720 C.ar    1  UNL1        0.0045
     15 C          12.1915   39.0958    8.7059 C.ar    1  UNL1        0.0617
     16 C          12.8411   41.3787    8.4912 C.ar    1  UNL1        0.1328
     17 C          11.4959   41.7662    8.4244 C.ar    1  UNL1        0.0344
     18 C          10.4945   40.7983    8.5004 C.ar    1  UNL1        0.0041
     19 C          10.8384   39.4545    8.6420 C.ar    1  UNL1        0.0149
     20 N          13.1487   40.0600    8.6293 N.ar    1  UNL1       -0.2348
     21 N          13.9093   42.3338    8.4180 N.pl3   1  UNL1       -0.2821
     22 H          14.3243   42.5898    9.2732 H       1  UNL1        0.1551
     23 C          14.4416   42.9583    7.2420 C.ar    1  UNL1        0.1526
     24 C          16.2393   43.9511    6.0546 C.ar    1  UNL1        0.1210
     25 C          15.4038   44.1515    4.9551 C.ar    1  UNL1        0.1196
     26 C          13.6084   43.1605    6.1396 C.ar    1  UNL1        0.1332
     27 N          15.7408   43.3598    7.1721 N.ar    1  UNL1       -0.2258
     28 N          14.1065   43.7518    5.0216 N.ar    1  UNL1       -0.2378
@<TRIPOS>BOND
     1     1     2    1
     2     2     3    1
     3     3     4    1
     4     3    15    1
     5     4     7    1
     6     5     7    1
     7     5     1    1
     8     6     9    1
     9    10    11   ar
    10    12    13   ar
    11    14     9   ar
    12    16    20   ar
    13    16    21    1
    14    17    18   ar
    15    19    15   ar
    16    24    27   ar
    17    25    28   ar
    18    26    23   ar
    19     7     6   am
    20    21    23    1
    21     6     8    2
    22     9    10   ar
    23    11    12   ar
    24    13    14   ar
    25    15    20   ar
    26    16    17   ar
    27    18    19   ar
    28    23    27   ar
    29    24    25   ar
    30    26    28   ar
    31    21    22    1
@<TRIPOS>MOLECULE
Molport-052-049-202 MCULE-4619615168 PubChem-110093683
 28 31 0 0 0
SMALL
GASTEIGER

@<TRIPOS>ATOM
      1 C           7.7115   43.8990    8.4573 C.3     1  UNL1        0.0220
      2 C           6.2512   43.5260    8.7009 C.3     1  UNL1        0.0094
      3 C           6.1442   42.5124    9.8426 C.3     1  UNL1        0.0602
      4 C           6.9823   41.2687    9.5413 C.3     1  UNL1        0.0996
      5 C           8.5228   42.6467    8.1399 C.3     1  UNL1        0.0937
      6 C           9.4416   41.2439   10.0454 C.2     1  UNL1        0.2490
      7 N           8.3479   41.6663    9.2096 N.am    1  UNL1       -0.2757
      8 O           9.1957   40.8266   11.2108 O.2     1  UNL1       -0.2699
      9 C          10.8494   41.2718    9.5829 C.ar    1  UNL1        0.0536
     10 C          11.2106   42.0921    8.5025 C.ar    1  UNL1        0.0045
     11 C          12.5380   42.1525    8.0682 C.ar    1  UNL1        0.0001
     12 C          13.5195   41.3982    8.7158 C.ar    1  UNL1        0.0000
     13 C          13.1741   40.5869    9.7991 C.ar    1  UNL1        0.0001
     14 C          11.8464   40.5276   10.2323 C.ar    1  UNL1        0.0045
     15 C           4.7182   42.1468   10.1061 C.ar    1  UNL1        0.0617
     16 C           2.9025   42.0641   11.6476 C.ar    1  UNL1        0.1328
     17 C           2.0814   41.4926   10.6661 C.ar    1  UNL1        0.0344
     18 C           2.5954   41.2496    9.3924 C.ar    1  UNL1        0.0041
     19 C           3.9201   41.5763    9.1053 C.ar    1  UNL1        0.0149
     20 N           4.1919   42.3734   11.3403 N.ar    1  UNL1       -0.2348
     21 N           2.4236   42.3345   12.9727 N.pl3   1  UNL1       -0.2821
     22 H           3.1088   42.4239   13.6740 H       1  UNL1        0.1551
     23 C           1.0614   42.4895   13.3929 C.ar    1  UNL1        0.1526
     24 C          -0.9861   41.5761   14.1681 C.ar    1  UNL1        0.1210
     25 C          -1.5487   42.8529   14.1898 C.ar    1  UNL1        0.1196
     26 C           0.4949   43.7658   13.4159 C.ar    1  UNL1        0.1332
     27 N           0.3044   41.4226   13.7708 N.ar    1  UNL1       -0.2258
     28 N          -0.7959   43.9199   13.8131 N.ar    1  UNL1       -0.2378
@<TRIPOS>BOND
     1     1     2    1
     2     2     3    1
     3     3     4    1
     4     3    15    1
     5     4     7    1
     6     5     7    1
     7     5     1    1
     8     6     9    1
     9    10    11   ar
    10    12    13   ar
    11    14     9   ar
    12    16    20   ar
    13    16    21    1
    14    17    18   ar
    15    19    15   ar
    16    24    27   ar
    17    25    28   ar
    18    26    23   ar
    19     7     6   am
    20    21    23    1
    21     6     8    2
    22     9    10   ar
    23    11    12   ar
    24    13    14   ar
    25    15    20   ar
    26    16    17   ar
    27    18    19   ar
    28    23    27   ar
    29    24    25   ar
    30    26    28   ar
    31    21    22    1
@<TRIPOS>MOLECULE
Molport-052-049-202 MCULE-4619615168 PubChem-110093683
 28 31 0 0 0
SMALL
GASTEIGER

@<TRIPOS>ATOM
      1 C           8.9061   40.5711    6.9122 C.3     1  UNL1        0.0220
      2 C          10.3585   40.3722    7.3387 C.3     1  UNL1        0.0094
      3 C          10.5261   40.6973    8.8248 C.3     1  UNL1        0.0602
      4 C          10.0606   42.1238    9.1216 C.3     1  UNL1        0.0996
      5 C           8.4709   42.0047    7.1995 C.3     1  UNL1        0.0937
      6 C           7.6291   42.6082    9.5168 C.2     1  UNL1        0.2490
      7 N           8.7067   42.3147    8.6082 N.am    1  UNL1       -0.2757
      8 O           7.7858   42.3765   10.7475 O.2     1  UNL1       -0.2699
      9 C           6.3417   43.1836    9.0604 C.ar    1  UNL1        0.0536
     10 C           5.1336   42.6470    9.5326 C.ar    1  UNL1        0.0045
     11 C           3.9095   43.1926    9.1347 C.ar    1  UNL1        0.0001
     12 C           3.8820   44.2861    8.2658 C.ar    1  UNL1        0.0000
     13 C           5.0779   44.8357    7.7981 C.ar    1  UNL1        0.0001
     14 C           6.3011   44.2891    8.1969 C.ar    1  UNL1        0.0045
     15 C          11.9407   40.4927    9.2646 C.ar    1  UNL1        0.0617
     16 C          14.2606   40.8403    8.8434 C.ar    1  UNL1        0.1328
     17 C          14.5881   40.1500   10.0183 C.ar    1  UNL1        0.0344
     18 C          13.5715   39.6288   10.8185 C.ar    1  UNL1        0.0041
     19 C          12.2390   39.7980   10.4445 C.ar    1  UNL1        0.0149
     20 N          12.9516   40.9911    8.5021 N.ar    1  UNL1       -0.2348
     21 N          15.2673   41.3958    7.9853 N.pl3   1  UNL1       -0.2821
     22 H          16.1032   40.8819    7.9047 H       1  UNL1        0.1551
     23 C          15.1957   42.6135    7.2315 C.ar    1  UNL1        0.1526
     24 C          16.1620   44.6435    6.4746 C.ar    1  UNL1        0.1210
     25 C          14.9963   44.9351    5.7652 C.ar    1  UNL1        0.1196
     26 C          14.0307   42.9087    6.5201 C.ar    1  UNL1        0.1332
     27 N          16.2360   43.4910    7.1910 N.ar    1  UNL1       -0.2258
     28 N          13.9560   44.0613    5.8034 N.ar    1  UNL1       -0.2378
@<TRIPOS>BOND
     1     1     2    1
     2     2     3    1
     3     3     4    1
     4     3    15    1
     5     4     7    1
     6     5     7    1
     7     5     1    1
     8     6     9    1
     9    10    11   ar
    10    12    13   ar
    11    14     9   ar
    12    16    20   ar
    13    16    21    1
    14    17    18   ar
    15    19    15   ar
    16    24    27   ar
    17    25    28   ar
    18    26    23   ar
    19     7     6   am
    20    21    23    1
    21     6     8    2
    22     9    10   ar
    23    11    12   ar
    24    13    14   ar
    25    15    20   ar
    26    16    17   ar
    27    18    19   ar
    28    23    27   ar
    29    24    25   ar
    30    26    28   ar
    31    21    22    1
@<TRIPOS>MOLECULE
Molport-052-049-202 MCULE-4619615168 PubChem-110093683
 28 31 0 0 0
SMALL
GASTEIGER

@<TRIPOS>ATOM
      1 C           9.3837   42.1881   11.3885 C.3     1  UNL1        0.0220
      2 C          10.5597   41.2441   11.1499 C.3     1  UNL1        0.0094
      3 C          10.8567   41.1319    9.6528 C.3     1  UNL1        0.0602
      4 C           9.6168   40.6629    8.8896 C.3     1  UNL1        0.0996
      5 C           8.1549   41.6900   10.6343 C.3     1  UNL1        0.0937
      6 C           7.8577   42.3126    8.1916 C.2     1  UNL1        0.2490
      7 N           8.4833   41.5227    9.2200 N.am    1  UNL1       -0.2757
      8 O           8.4781   42.5126    7.1109 O.2     1  UNL1       -0.2699
      9 C           6.5036   42.8935    8.3516 C.ar    1  UNL1        0.0536
     10 C           6.1727   44.0817    7.6814 C.ar    1  UNL1        0.0045
     11 C           4.8926   44.6312    7.7983 C.ar    1  UNL1        0.0001
     12 C           3.9276   43.9929    8.5812 C.ar    1  UNL1        0.0000
     13 C           4.2417   42.8041    9.2437 C.ar    1  UNL1        0.0001
     14 C           5.5222   42.2558    9.1258 C.ar    1  UNL1        0.0045
     15 C          12.0169   40.2225    9.4007 C.ar    1  UNL1        0.0617
     16 C          14.3729   39.9731    9.1421 C.ar    1  UNL1        0.1328
     17 C          14.2152   38.5956    8.9373 C.ar    1  UNL1        0.0344
     18 C          12.9382   38.0355    8.9666 C.ar    1  UNL1        0.0041
     19 C          11.8296   38.8485    9.1991 C.ar    1  UNL1        0.0149
     20 N          13.2735   40.7435    9.3671 N.ar    1  UNL1       -0.2348
     21 N          15.6637   40.5992    9.1220 N.pl3   1  UNL1       -0.2821
     22 H          16.3690   40.1608    9.6507 H       1  UNL1        0.1551
     23 C          16.0442   41.7903    8.4201 C.ar    1  UNL1        0.1526
     24 C          15.6353   43.4449    6.7700 C.ar    1  UNL1        0.1210
     25 C          16.8302   44.0805    7.1098 C.ar    1  UNL1        0.1196
     26 C          17.2394   42.4294    8.7574 C.ar    1  UNL1        0.1332
     27 N          15.2691   42.3156    7.4315 N.ar    1  UNL1       -0.2258
     28 N          17.6062   43.5589    8.0961 N.ar    1  UNL1       -0.2378
@<TRIPOS>BOND
     1     1     2    1
     2     2     3    1
     3     3     4    1
     4     3    15    1
     5     4     7    1
     6     5     7    1
     7     5     1    1
     8     6     9    1
     9    10    11   ar
    10    12    13   ar
    11    14     9   ar
    12    16    20   ar
    13    16    21    1
    14    17    18   ar
    15    19    15   ar
    16    24    27   ar
    17    25    28   ar
    18    26    23   ar
    19     7     6   am
    20    21    23    1
    21     6     8    2
    22     9    10   ar
    23    11    12   ar
    24    13    14   ar
    25    15    20   ar
    26    16    17   ar
    27    18    19   ar
    28    23    27   ar
    29    24    25   ar
    30    26    28   ar
    31    21    22    1
@<TRIPOS>MOLECULE
Molport-052-049-202 MCULE-4619615168 PubChem-110093683
 28 31 0 0 0
SMALL
GASTEIGER

@<TRIPOS>ATOM
      1 C          10.3811   39.4077    7.9500 C.3     1  UNL1        0.0220
      2 C          11.8280   39.2087    8.3950 C.3     1  UNL1        0.0094
      3 C          12.0473   39.8198    9.7810 C.3     1  UNL1        0.0602
      4 C          11.6749   41.3034    9.7824 C.3     1  UNL1        0.0996
      5 C          10.0392   40.8943    7.9404 C.3     1  UNL1        0.0937
      6 C           9.2862   42.0113   10.0917 C.2     1  UNL1        0.2490
      7 N          10.3240   41.4704    9.2530 N.am    1  UNL1       -0.2757
      8 O           9.4556   42.0269   11.3422 O.2     1  UNL1       -0.2699
      9 C           8.0260   42.5614    9.5385 C.ar    1  UNL1        0.0536
     10 C           6.8441   41.8081    9.6180 C.ar    1  UNL1        0.0045
     11 C           5.6400   42.3203    9.1259 C.ar    1  UNL1        0.0001
     12 C           5.6046   43.5952    8.5559 C.ar    1  UNL1        0.0000
     13 C           6.7720   44.3587    8.4814 C.ar    1  UNL1        0.0001
     14 C           7.9753   43.8452    8.9740 C.ar    1  UNL1        0.0045
     15 C          13.4564   39.6204   10.2404 C.ar    1  UNL1        0.0617
     16 C          15.7723   40.0862    9.9247 C.ar    1  UNL1        0.1328
     17 C          16.0938   39.2941   11.0354 C.ar    1  UNL1        0.0344
     18 C          15.0762   38.6621   11.7499 C.ar    1  UNL1        0.0041
     19 C          13.7487   38.8226   11.3548 C.ar    1  UNL1        0.0149
     20 N          14.4681   40.2258    9.5610 N.ar    1  UNL1       -0.2348
     21 N          16.7804   40.7576    9.1557 N.pl3   1  UNL1       -0.2821
     22 H          17.6682   40.3327    9.1355 H       1  UNL1        0.1551
     23 C          16.6430   41.9765    8.4131 C.ar    1  UNL1        0.1526
     24 C          15.4070   43.3980    6.9711 C.ar    1  UNL1        0.1210
     25 C          16.4394   44.3360    7.0091 C.ar    1  UNL1        0.1196
     26 C          17.6742   42.9177    8.4487 C.ar    1  UNL1        0.1332
     27 N          15.5312   42.2408    7.6727 N.ar    1  UNL1       -0.2258
     28 N          17.5505   44.0754    7.7470 N.ar    1  UNL1       -0.2378
@<TRIPOS>BOND
     1     1     2    1
     2     2     3    1
     3     3     4    1
     4     3    15    1
     5     4     7    1
     6     5     7    1
     7     5     1    1
     8     6     9    1
     9    10    11   ar
    10    12    13   ar
    11    14     9   ar
    12    16    20   ar
    13    16    21    1
    14    17    18   ar
    15    19    15   ar
    16    24    27   ar
    17    25    28   ar
    18    26    23   ar
    19     7     6   am
    20    21    23    1
    21     6     8    2
    22     9    10   ar
    23    11    12   ar
    24    13    14   ar
    25    15    20   ar
    26    16    17   ar
    27    18    19   ar
    28    23    27   ar
    29    24    25   ar
    30    26    28   ar
    31    21    22    1
