@<TRIPOS>MOLECULE
MolPort-035-706-975 CSSS03437789230 MCULE-7007076804 PubChem-91938300
 28 30 0 0 0
SMALL
GASTEIGER

@<TRIPOS>ATOM
      1 C          12.5970   36.4907   10.1146 C.3     1  UNL1        0.2880
      2 C          12.9828   35.1521    9.5016 C.3     1  UNL1        0.0650
      3 C          12.6956   38.6637    8.8523 C.ar    1  UNL1        0.1542
      4 C          13.4939   39.6500    8.2653 C.ar    1  UNL1        0.0529
      5 C          12.9151   40.8065    7.7306 C.ar    1  UNL1        0.0537
      6 C          11.5215   40.9652    7.7850 C.ar    1  UNL1        0.0162
      7 C          10.7200   39.9791    8.3668 C.ar    1  UNL1        0.0190
      8 C          11.3082   38.8303    8.9005 C.ar    1  UNL1        0.0850
      9 C          11.0906   36.6461   10.0500 C.2     1  UNL1        0.2732
     10 O          13.2908   37.5138    9.3823 O.3     1  UNL1       -0.4618
     11 O          10.3416   35.7524   10.5288 O.2     1  UNL1       -0.2704
     12 N          10.4993   37.8135    9.4797 N.am    1  UNL1       -0.2783
     13 H           9.5202   37.9162    9.4873 H       1  UNL1        0.1551
     14 C          14.9111   42.4167    7.7443 C.2     1  UNL1        0.2843
     15 O          15.2779   42.1063    8.9096 O.2     1  UNL1       -0.2665
     16 N          13.7695   41.7948    7.1390 N.am    1  UNL1       -0.2778
     17 H          13.5493   42.0756    6.2214 H       1  UNL1        0.1553
     18 C          15.6622   43.4251    6.9895 C.ar    1  UNL1        0.1994
     19 C          17.0316   43.4275    6.7926 C.ar    1  UNL1        0.0459
     20 C          17.2895   44.5557    6.0305 C.ar    1  UNL1        0.0478
     21 C          16.0587   45.1477    5.8260 C.ar    1  UNL1        0.1793
     22 O          15.1096   44.4577    6.4049 O.2     1  UNL1       -0.4423
     23 BR         15.7619   46.7497    4.8375 Br      1  UNL1       -0.0078
     24 C          13.0354   36.5402   11.5528 C.2     1  UNL1        0.3623
     25 O          12.5060   37.3644   12.3501 O.2     1  UNL1       -0.2457
     26 O          14.0716   35.7090   11.9859 O.3     1  UNL1       -0.4458
     27 C          15.5636   37.5787   11.8426 C.3     1  UNL1        0.0513
     28 C          15.2974   36.2296   12.4769 C.3     1  UNL1        0.2087
@<TRIPOS>BOND
     1    27    28    1
     2    28    26    1
     3    24    26    1
     4     1    24    1
     5     1     2    1
     6     1    10    1
     7     1     9    1
     8     3    10    1
     9     4     5   ar
    10     5    16    1
    11    14    18    1
    12    18    22   ar
    13    19    20   ar
    14    21    23    1
    15    21    22   ar
    16     6     7   ar
    17     8    12    1
    18     8     3   ar
    19    16    14   am
    20    12     9   am
    21    24    25    2
    22     3     4   ar
    23     5     6   ar
    24    14    15    2
    25    18    19   ar
    26    20    21   ar
    27     7     8   ar
    28     9    11    2
    29    16    17    1
    30    12    13    1
@<TRIPOS>MOLECULE
MolPort-035-706-975 CSSS03437789230 MCULE-7007076804 PubChem-91938300
 28 30 0 0 0
SMALL
GASTEIGER

@<TRIPOS>ATOM
      1 C           6.3472   42.8417    8.0847 C.3     1  UNL1        0.2880
      2 C           5.9838   42.9803    6.6133 C.3     1  UNL1        0.0650
      3 C           8.6770   42.3386    8.8871 C.ar    1  UNL1        0.1542
      4 C           9.7128   41.4049    8.9868 C.ar    1  UNL1        0.0529
      5 C          10.8726   41.7056    9.7098 C.ar    1  UNL1        0.0537
      6 C          10.9886   42.9587   10.3316 C.ar    1  UNL1        0.0162
      7 C           9.9572   43.8964   10.2300 C.ar    1  UNL1        0.0190
      8 C           8.8025   43.5847    9.5088 C.ar    1  UNL1        0.0850
      9 C           6.5594   44.2230    8.6719 C.2     1  UNL1        0.2732
     10 O           7.5242   42.0213    8.1605 O.3     1  UNL1       -0.4618
     11 O           5.6637   45.1026    8.5587 O.2     1  UNL1       -0.2704
     12 N           7.7545   44.5387    9.3859 N.am    1  UNL1       -0.2783
     13 H           7.8546   45.4271    9.7981 H       1  UNL1        0.1551
     14 C          13.1306   40.6939    9.0356 C.2     1  UNL1        0.2843
     15 O          13.4016   41.6050    8.2079 O.2     1  UNL1       -0.2665
     16 N          11.9108   40.7194    9.7891 N.am    1  UNL1       -0.2778
     17 H          11.7714   39.9831   10.4275 H       1  UNL1        0.1553
     18 C          14.0755   39.5909    9.2389 C.ar    1  UNL1        0.1994
     19 C          15.3025   39.6890    9.8705 C.ar    1  UNL1        0.0459
     20 C          15.8380   38.4116    9.8297 C.ar    1  UNL1        0.0478
     21 C          14.8956   37.6411    9.1773 C.ar    1  UNL1        0.1793
     22 O          13.8594   38.3640    8.8372 O.2     1  UNL1       -0.4423
     23 BR         15.0622   35.7778    8.8139 Br      1  UNL1       -0.0078
     24 C           5.2301   42.1587    8.8254 C.2     1  UNL1        0.3623
     25 O           4.0470   42.5903    8.7289 O.2     1  UNL1       -0.2457
     26 O           5.5190   41.0804    9.6656 O.3     1  UNL1       -0.4458
     27 C           4.0860   40.3075   11.4238 C.3     1  UNL1        0.0513
     28 C           5.2998   41.1395   11.0667 C.3     1  UNL1        0.2087
@<TRIPOS>BOND
     1    27    28    1
     2    28    26    1
     3    24    26    1
     4     1    24    1
     5     1     2    1
     6     1    10    1
     7     1     9    1
     8     3    10    1
     9     4     5   ar
    10     5    16    1
    11    14    18    1
    12    18    22   ar
    13    19    20   ar
    14    21    23    1
    15    21    22   ar
    16     6     7   ar
    17     8    12    1
    18     8     3   ar
    19    16    14   am
    20    12     9   am
    21    24    25    2
    22     3     4   ar
    23     5     6   ar
    24    14    15    2
    25    18    19   ar
    26    20    21   ar
    27     7     8   ar
    28     9    11    2
    29    16    17    1
    30    12    13    1
@<TRIPOS>MOLECULE
MolPort-035-706-975 CSSS03437789230 MCULE-7007076804 PubChem-91938300
 28 30 0 0 0
SMALL
GASTEIGER

@<TRIPOS>ATOM
      1 C          -0.5069   45.6899   14.8131 C.3     1  UNL1        0.2880
      2 C           0.1528   46.5313   13.7299 C.3     1  UNL1        0.0650
      3 C           0.6370   45.0723   16.9659 C.ar    1  UNL1        0.1542
      4 C           1.6365   44.3255   17.5969 C.ar    1  UNL1        0.0529
      5 C           1.7451   44.3206   18.9921 C.ar    1  UNL1        0.0537
      6 C           0.8419   45.0783   19.7539 C.ar    1  UNL1        0.0162
      7 C          -0.1555   45.8299   19.1262 C.ar    1  UNL1        0.0190
      8 C          -0.2571   45.8250   17.7333 C.ar    1  UNL1        0.0850
      9 C          -1.3876   46.5840   15.6632 C.2     1  UNL1        0.2732
     10 O           0.5426   45.0655   15.5700 O.3     1  UNL1       -0.4618
     11 O          -2.2675   47.3052   15.1206 O.2     1  UNL1       -0.2704
     12 N          -1.2584   46.5999   17.0848 N.am    1  UNL1       -0.2783
     13 H          -1.8694   47.1536   17.6226 H       1  UNL1        0.1551
     14 C           4.1468   43.9339   19.8041 C.2     1  UNL1        0.2843
     15 O           4.5517   45.0755   19.4553 O.2     1  UNL1       -0.2665
     16 N           2.7831   43.5398   19.6001 N.am    1  UNL1       -0.2778
     17 H           2.5334   42.6393   19.9097 H       1  UNL1        0.1553
     18 C           5.0785   42.9921   20.4329 C.ar    1  UNL1        0.1994
     19 C           4.7219   41.8423   21.1148 C.ar    1  UNL1        0.0459
     20 C           5.9175   41.2767   21.5282 C.ar    1  UNL1        0.0478
     21 C           6.9029   42.1266   21.0658 C.ar    1  UNL1        0.1793
     22 O           6.3794   43.1364   20.4192 O.2     1  UNL1       -0.4423
     23 BR          8.7749   41.8793   21.3226 Br      1  UNL1       -0.0078
     24 C          -1.3552   44.6191   14.1834 C.2     1  UNL1        0.3623
     25 O          -2.2266   44.9242   13.3214 O.2     1  UNL1       -0.2457
     26 O          -1.2126   43.2933   14.6005 O.3     1  UNL1       -0.4458
     27 C           0.5851   43.1055   13.0273 C.3     1  UNL1        0.0513
     28 C          -0.4178   42.3611   13.8836 C.3     1  UNL1        0.2087
@<TRIPOS>BOND
     1    27    28    1
     2    28    26    1
     3    24    26    1
     4     1    24    1
     5     1     2    1
     6     1    10    1
     7     1     9    1
     8     3    10    1
     9     4     5   ar
    10     5    16    1
    11    14    18    1
    12    18    22   ar
    13    19    20   ar
    14    21    23    1
    15    21    22   ar
    16     6     7   ar
    17     8    12    1
    18     8     3   ar
    19    16    14   am
    20    12     9   am
    21    24    25    2
    22     3     4   ar
    23     5     6   ar
    24    14    15    2
    25    18    19   ar
    26    20    21   ar
    27     7     8   ar
    28     9    11    2
    29    16    17    1
    30    12    13    1
@<TRIPOS>MOLECULE
MolPort-035-706-975 CSSS03437789230 MCULE-7007076804 PubChem-91938300
 28 30 0 0 0
SMALL
GASTEIGER

@<TRIPOS>ATOM
      1 C           5.2762   42.1849    9.6153 C.3     1  UNL1        0.2880
      2 C           5.0513   41.8329   11.0788 C.3     1  UNL1        0.0650
      3 C           7.4188   41.6935    8.3936 C.ar    1  UNL1        0.1542
      4 C           8.7749   41.9900    8.2275 C.ar    1  UNL1        0.0529
      5 C           9.5153   41.3805    7.2083 C.ar    1  UNL1        0.0537
      6 C           8.8830   40.4626    6.3551 C.ar    1  UNL1        0.0162
      7 C           7.5287   40.1601    6.5212 C.ar    1  UNL1        0.0190
      8 C           6.7983   40.7767    7.5395 C.ar    1  UNL1        0.0850
      9 C           4.6605   41.1043    8.7486 C.2     1  UNL1        0.2732
     10 O           6.6935   42.3123    9.4176 O.3     1  UNL1       -0.4618
     11 O           3.4523   40.7806    8.9046 O.2     1  UNL1       -0.2704
     12 N           5.4235   40.4627    7.7269 N.am    1  UNL1       -0.2783
     13 H           4.9933   39.7952    7.1451 H       1  UNL1        0.1551
     14 C          11.9040   41.6658    8.0970 C.2     1  UNL1        0.2843
     15 O          11.6185   41.2873    9.2649 O.2     1  UNL1       -0.2665
     16 N          10.9034   41.7136    7.0708 N.am    1  UNL1       -0.2778
     17 H          11.2004   42.0054    6.1787 H       1  UNL1        0.1553
     18 C          13.2794   42.0601    7.7756 C.ar    1  UNL1        0.1994
     19 C          14.4197   41.3597    8.1268 C.ar    1  UNL1        0.0459
     20 C          15.4747   42.0993    7.6167 C.ar    1  UNL1        0.0478
     21 C          14.8923   43.1880    6.9980 C.ar    1  UNL1        0.1793
     22 O          13.5892   43.1415    7.1063 O.2     1  UNL1       -0.4423
     23 BR         15.8394   44.5781    6.1024 Br      1  UNL1       -0.0078
     24 C           4.6210   43.5016    9.2992 C.2     1  UNL1        0.3623
     25 O           3.3616   43.5970    9.2845 O.2     1  UNL1       -0.2457
     26 O           5.4137   44.6028    8.9656 O.3     1  UNL1       -0.4458
     27 C           7.7055   45.2503    9.2305 C.3     1  UNL1        0.0513
     28 C           6.7118   44.4540    8.4111 C.3     1  UNL1        0.2087
@<TRIPOS>BOND
     1    27    28    1
     2    28    26    1
     3    24    26    1
     4     1    24    1
     5     1     2    1
     6     1    10    1
     7     1     9    1
     8     3    10    1
     9     4     5   ar
    10     5    16    1
    11    14    18    1
    12    18    22   ar
    13    19    20   ar
    14    21    23    1
    15    21    22   ar
    16     6     7   ar
    17     8    12    1
    18     8     3   ar
    19    16    14   am
    20    12     9   am
    21    24    25    2
    22     3     4   ar
    23     5     6   ar
    24    14    15    2
    25    18    19   ar
    26    20    21   ar
    27     7     8   ar
    28     9    11    2
    29    16    17    1
    30    12    13    1
@<TRIPOS>MOLECULE
MolPort-035-706-975 CSSS03437789230 MCULE-7007076804 PubChem-91938300
 28 30 0 0 0
SMALL
GASTEIGER

@<TRIPOS>ATOM
      1 C          10.4323   38.3256    4.6837 C.3     1  UNL1        0.2880
      2 C           9.1028   37.5876    4.7495 C.3     1  UNL1        0.0650
      3 C          12.6440   37.1588    4.4161 C.ar    1  UNL1        0.1542
      4 C          13.6193   36.3369    4.9887 C.ar    1  UNL1        0.0529
      5 C          14.8159   36.0772    4.3111 C.ar    1  UNL1        0.0537
      6 C          15.0262   36.6471    3.0457 C.ar    1  UNL1        0.0162
      7 C          14.0513   37.4654    2.4681 C.ar    1  UNL1        0.0190
      8 C          12.8621   37.7208    3.1545 C.ar    1  UNL1        0.0850
      9 C          10.6479   38.8269    3.2695 C.2     1  UNL1        0.2732
     10 O          11.4536   37.4083    5.1075 O.3     1  UNL1       -0.4618
     11 O           9.7670   39.5317    2.7073 O.2     1  UNL1       -0.2704
     12 N          11.8571   38.5388    2.5676 N.am    1  UNL1       -0.2783
     13 H          11.9971   38.9106    1.6669 H       1  UNL1        0.1551
     14 C          16.2107   33.9326    4.4908 C.2     1  UNL1        0.2843
     15 O          15.7320   33.4180    3.4444 O.2     1  UNL1       -0.2665
     16 N          15.7912   35.2303    4.9341 N.am    1  UNL1       -0.2778
     17 H          16.2173   35.5759    5.7516 H       1  UNL1        0.1553
     18 C          17.2154   33.1999    5.2681 C.ar    1  UNL1        0.1994
     19 C          17.9361   32.1060    4.8229 C.ar    1  UNL1        0.0459
     20 C          18.7550   31.7515    5.8831 C.ar    1  UNL1        0.0478
     21 C          18.4666   32.6562    6.8859 C.ar    1  UNL1        0.1793
     22 O          17.5503   33.5050    6.4962 O.2     1  UNL1       -0.4423
     23 BR         19.2820   32.6826    8.6081 Br      1  UNL1       -0.0078
     24 C          10.4127   39.4996    5.6241 C.2     1  UNL1        0.3623
     25 O           9.4824   39.6206    6.4697 O.2     1  UNL1       -0.2457
     26 O          11.3980   40.4844    5.5168 O.3     1  UNL1       -0.4458
     27 C          12.5681   42.0017    6.9557 C.3     1  UNL1        0.0513
     28 C          12.4690   40.5802    6.4433 C.3     1  UNL1        0.2087
@<TRIPOS>BOND
     1    27    28    1
     2    28    26    1
     3    24    26    1
     4     1    24    1
     5     1     2    1
     6     1    10    1
     7     1     9    1
     8     3    10    1
     9     4     5   ar
    10     5    16    1
    11    14    18    1
    12    18    22   ar
    13    19    20   ar
    14    21    23    1
    15    21    22   ar
    16     6     7   ar
    17     8    12    1
    18     8     3   ar
    19    16    14   am
    20    12     9   am
    21    24    25    2
    22     3     4   ar
    23     5     6   ar
    24    14    15    2
    25    18    19   ar
    26    20    21   ar
    27     7     8   ar
    28     9    11    2
    29    16    17    1
    30    12    13    1
@<TRIPOS>MOLECULE
MolPort-035-706-975 CSSS03437789230 MCULE-7007076804 PubChem-91938300
 28 30 0 0 0
SMALL
GASTEIGER

@<TRIPOS>ATOM
      1 C           7.1230   42.5898    7.0574 C.3     1  UNL1        0.2880
      2 C           6.9539   43.2983    5.7211 C.3     1  UNL1        0.0650
      3 C           9.3278   42.4140    8.2545 C.ar    1  UNL1        0.1542
      4 C          10.6103   41.8584    8.2858 C.ar    1  UNL1        0.0529
      5 C          11.4550   42.0835    9.3786 C.ar    1  UNL1        0.0537
      6 C          11.0032   42.8785   10.4435 C.ar    1  UNL1        0.0162
      7 C           9.7235   43.4396   10.4133 C.ar    1  UNL1        0.0190
      8 C           8.8873   43.2058    9.3194 C.ar    1  UNL1        0.0850
      9 C           6.7166   43.5348    8.1708 C.2     1  UNL1        0.2732
     10 O           8.4962   42.1785    7.1542 O.3     1  UNL1       -0.4618
     11 O           5.5846   44.0887    8.1482 O.2     1  UNL1       -0.2704
     12 N           7.5894   43.7862    9.2720 N.am    1  UNL1       -0.2783
     13 H           7.2896   44.3680   10.0074 H       1  UNL1        0.1551
     14 C          13.2483   40.4731   10.2547 C.2     1  UNL1        0.2843
     15 O          12.5068   39.9782   11.1459 O.2     1  UNL1       -0.2665
     16 N          12.7623   41.4938    9.3724 N.am    1  UNL1       -0.2778
     17 H          13.3918   41.8242    8.6914 H       1  UNL1        0.1553
     18 C          14.6283   39.9985   10.1102 C.ar    1  UNL1        0.1994
     19 C          15.6259   40.6327    9.3914 C.ar    1  UNL1        0.0459
     20 C          16.7470   39.8312    9.5362 C.ar    1  UNL1        0.0478
     21 C          16.3417   38.7758   10.3294 C.ar    1  UNL1        0.1793
     22 O          15.0808   38.8984   10.6566 O.2     1  UNL1       -0.4423
     23 BR         17.4521   37.3298   10.8838 Br      1  UNL1       -0.0078
     24 C           6.2455   41.3688    7.1038 C.2     1  UNL1        0.3623
     25 O           5.6347   40.9859    6.0666 O.2     1  UNL1       -0.2457
     26 O           6.0652   40.6958    8.3148 O.3     1  UNL1       -0.4458
     27 C           3.8342   41.1254    9.0765 C.3     1  UNL1        0.0513
     28 C           5.3121   41.2546    9.3803 C.3     1  UNL1        0.2087
@<TRIPOS>BOND
     1    27    28    1
     2    28    26    1
     3    24    26    1
     4     1    24    1
     5     1     2    1
     6     1    10    1
     7     1     9    1
     8     3    10    1
     9     4     5   ar
    10     5    16    1
    11    14    18    1
    12    18    22   ar
    13    19    20   ar
    14    21    23    1
    15    21    22   ar
    16     6     7   ar
    17     8    12    1
    18     8     3   ar
    19    16    14   am
    20    12     9   am
    21    24    25    2
    22     3     4   ar
    23     5     6   ar
    24    14    15    2
    25    18    19   ar
    26    20    21   ar
    27     7     8   ar
    28     9    11    2
    29    16    17    1
    30    12    13    1
@<TRIPOS>MOLECULE
MolPort-035-706-975 CSSS03437789230 MCULE-7007076804 PubChem-91938300
 28 30 0 0 0
SMALL
GASTEIGER

@<TRIPOS>ATOM
      1 C          14.9990   38.6566   10.5469 C.3     1  UNL1        0.2880
      2 C          15.7673   38.6444   11.8606 C.3     1  UNL1        0.0650
      3 C          12.8153   39.8657   10.2389 C.ar    1  UNL1        0.1542
      4 C          11.4517   39.9302   10.5404 C.ar    1  UNL1        0.0529
      5 C          10.6339   40.8869    9.9287 C.ar    1  UNL1        0.0537
      6 C          11.1979   41.7866    9.0108 C.ar    1  UNL1        0.0162
      7 C          12.5617   41.7282    8.7106 C.ar    1  UNL1        0.0190
      8 C          13.3682   40.7672    9.3243 C.ar    1  UNL1        0.0850
      9 C          15.5904   39.7176    9.6402 C.2     1  UNL1        0.2732
     10 O          13.6184   38.9026   10.8595 O.3     1  UNL1       -0.4618
     11 O          16.8249   39.7152    9.3856 O.2     1  UNL1       -0.2704
     12 N          14.7605   40.7106    9.0378 N.am    1  UNL1       -0.2783
     13 H          15.1563   41.3640    8.4167 H       1  UNL1        0.1551
     14 C           8.1854   41.5173    9.4988 C.2     1  UNL1        0.2843
     15 O           8.4229   42.0814    8.3969 O.2     1  UNL1       -0.2665
     16 N           9.2399   40.9183   10.2642 N.am    1  UNL1       -0.2778
     17 H           8.9797   40.4831   11.1081 H       1  UNL1        0.1553
     18 C           6.8114   41.4657   10.0087 C.ar    1  UNL1        0.1994
     19 C           6.4472   41.4900   11.3431 C.ar    1  UNL1        0.0459
     20 C           5.0632   41.4224   11.3458 C.ar    1  UNL1        0.0478
     21 C           4.6978   41.3621   10.0154 C.ar    1  UNL1        0.1793
     22 O           5.7530   41.3894    9.2423 O.2     1  UNL1       -0.4423
     23 BR          2.9070   41.2549    9.3728 Br      1  UNL1       -0.0078
     24 C          15.1136   37.3157    9.8748 C.2     1  UNL1        0.3623
     25 O          15.7103   37.2097    8.7666 O.2     1  UNL1       -0.2457
     26 O          14.5059   36.1998   10.4559 O.3     1  UNL1       -0.4458
     27 C          12.1385   35.8366   10.5303 C.3     1  UNL1        0.0513
     28 C          13.4378   35.5112    9.8238 C.3     1  UNL1        0.2087
@<TRIPOS>BOND
     1    27    28    1
     2    28    26    1
     3    24    26    1
     4     1    24    1
     5     1     2    1
     6     1    10    1
     7     1     9    1
     8     3    10    1
     9     4     5   ar
    10     5    16    1
    11    14    18    1
    12    18    22   ar
    13    19    20   ar
    14    21    23    1
    15    21    22   ar
    16     6     7   ar
    17     8    12    1
    18     8     3   ar
    19    16    14   am
    20    12     9   am
    21    24    25    2
    22     3     4   ar
    23     5     6   ar
    24    14    15    2
    25    18    19   ar
    26    20    21   ar
    27     7     8   ar
    28     9    11    2
    29    16    17    1
    30    12    13    1
@<TRIPOS>MOLECULE
MolPort-035-706-975 CSSS03437789230 MCULE-7007076804 PubChem-91938300
 28 30 0 0 0
SMALL
GASTEIGER

@<TRIPOS>ATOM
      1 C          17.1325   43.0073    8.4110 C.3     1  UNL1        0.2880
      2 C          17.6013   44.0009    9.4642 C.3     1  UNL1        0.0650
      3 C          14.8081   43.0114    7.4507 C.ar    1  UNL1        0.1542
      4 C          13.4462   42.7749    7.6606 C.ar    1  UNL1        0.0529
      5 C          12.5370   42.8737    6.6014 C.ar    1  UNL1        0.0537
      6 C          13.0057   43.2182    5.3239 C.ar    1  UNL1        0.0162
      7 C          14.3658   43.4601    5.1114 C.ar    1  UNL1        0.0190
      8 C          15.2651   43.3554    6.1748 C.ar    1  UNL1        0.0850
      9 C          17.5811   43.4887    7.0454 C.2     1  UNL1        0.2732
     10 O          15.7034   42.9080    8.5209 O.3     1  UNL1       -0.4618
     11 O          18.7952   43.7553    6.8364 O.2     1  UNL1       -0.2704
     12 N          16.6488   43.6160    5.9719 N.am    1  UNL1       -0.2783
     13 H          16.9672   43.8873    5.0807 H       1  UNL1        0.1551
     14 C          10.5555   41.3650    7.2131 C.2     1  UNL1        0.2843
     15 O          11.2608   40.3292    7.3485 O.2     1  UNL1       -0.2665
     16 N          11.1489   42.6214    6.8585 N.am    1  UNL1       -0.2778
     17 H          10.5397   43.3912    6.7838 H       1  UNL1        0.1553
     18 C           9.1062   41.2912    7.4246 C.ar    1  UNL1        0.1994
     19 C           8.2587   40.3509    6.8665 C.ar    1  UNL1        0.0459
     20 C           6.9964   40.6684    7.3417 C.ar    1  UNL1        0.0478
     21 C           7.1773   41.7745    8.1486 C.ar    1  UNL1        0.1793
     22 O           8.4377   42.1243    8.1813 O.2     1  UNL1       -0.4423
     23 BR          5.7937   42.6810    9.0948 Br      1  UNL1       -0.0078
     24 C          17.7357   41.6554    8.6786 C.2     1  UNL1        0.3623
     25 O          18.5978   41.1771    7.8891 O.2     1  UNL1       -0.2457
     26 O          17.2936   40.9085    9.7735 O.3     1  UNL1       -0.4458
     27 C          16.2022   39.1342   10.9578 C.3     1  UNL1        0.0513
     28 C          16.3561   39.8520    9.6334 C.3     1  UNL1        0.2087
@<TRIPOS>BOND
     1    27    28    1
     2    28    26    1
     3    24    26    1
     4     1    24    1
     5     1     2    1
     6     1    10    1
     7     1     9    1
     8     3    10    1
     9     4     5   ar
    10     5    16    1
    11    14    18    1
    12    18    22   ar
    13    19    20   ar
    14    21    23    1
    15    21    22   ar
    16     6     7   ar
    17     8    12    1
    18     8     3   ar
    19    16    14   am
    20    12     9   am
    21    24    25    2
    22     3     4   ar
    23     5     6   ar
    24    14    15    2
    25    18    19   ar
    26    20    21   ar
    27     7     8   ar
    28     9    11    2
    29    16    17    1
    30    12    13    1
@<TRIPOS>MOLECULE
MolPort-035-706-975 CSSS03437789230 MCULE-7007076804 PubChem-91938300
 28 30 0 0 0
SMALL
GASTEIGER

@<TRIPOS>ATOM
      1 C          14.9861   38.6541   10.5431 C.3     1  UNL1        0.2880
      2 C          14.9917   38.6572   12.0651 C.3     1  UNL1        0.0650
      3 C          13.6324   40.2661    9.1670 C.ar    1  UNL1        0.1542
      4 C          12.3656   40.6776    8.7422 C.ar    1  UNL1        0.0529
      5 C          12.2316   41.6963    7.7921 C.ar    1  UNL1        0.0537
      6 C          13.3839   42.3060    7.2719 C.ar    1  UNL1        0.0162
      7 C          14.6518   41.9006    7.6979 C.ar    1  UNL1        0.0190
      8 C          14.7743   40.8806    8.6441 C.ar    1  UNL1        0.0850
      9 C          16.1988   39.4148   10.0447 C.2     1  UNL1        0.2732
     10 O          13.7481   39.2459   10.1174 O.3     1  UNL1       -0.4618
     11 O          17.3517   39.0989   10.4445 O.2     1  UNL1       -0.2704
     12 N          16.0599   40.4725    9.0961 N.am    1  UNL1       -0.2783
     13 H          16.8632   40.9249    8.7507 H       1  UNL1        0.1551
     14 C           9.7286   42.0902    8.1884 C.2     1  UNL1        0.2843
     15 O           9.7664   41.7415    9.3991 O.2     1  UNL1       -0.2665
     16 N          10.9143   42.0874    7.3817 N.am    1  UNL1       -0.2778
     17 H          10.8134   42.3852    6.4488 H       1  UNL1        0.1553
     18 C           8.4568   42.5104    7.5916 C.ar    1  UNL1        0.1994
     19 C           7.9859   42.1267    6.3485 C.ar    1  UNL1        0.0459
     20 C           6.7615   42.7605    6.2096 C.ar    1  UNL1        0.0478
     21 C           6.5867   43.4775    7.3770 C.ar    1  UNL1        0.1793
     22 O           7.6062   43.3125    8.1803 O.2     1  UNL1       -0.4423
     23 BR          5.0741   44.5636    7.7820 Br      1  UNL1       -0.0078
     24 C          15.0492   37.2399   10.0341 C.2     1  UNL1        0.3623
     25 O          16.0843   36.5417   10.2254 O.2     1  UNL1       -0.2457
     26 O          13.9790   36.7242    9.2988 O.3     1  UNL1       -0.4458
     27 C          11.8209   36.3693   10.2779 C.3     1  UNL1        0.0513
     28 C          13.1159   35.7280    9.8255 C.3     1  UNL1        0.2087
@<TRIPOS>BOND
     1    27    28    1
     2    28    26    1
     3    24    26    1
     4     1    24    1
     5     1     2    1
     6     1    10    1
     7     1     9    1
     8     3    10    1
     9     4     5   ar
    10     5    16    1
    11    14    18    1
    12    18    22   ar
    13    19    20   ar
    14    21    23    1
    15    21    22   ar
    16     6     7   ar
    17     8    12    1
    18     8     3   ar
    19    16    14   am
    20    12     9   am
    21    24    25    2
    22     3     4   ar
    23     5     6   ar
    24    14    15    2
    25    18    19   ar
    26    20    21   ar
    27     7     8   ar
    28     9    11    2
    29    16    17    1
    30    12    13    1
@<TRIPOS>MOLECULE
MolPort-035-706-975 CSSS03437789230 MCULE-7007076804 PubChem-91938300
 28 30 0 0 0
SMALL
GASTEIGER

@<TRIPOS>ATOM
      1 C          13.9301   36.9359    9.8715 C.3     1  UNL1        0.2880
      2 C          13.6153   35.4493    9.9572 C.3     1  UNL1        0.0650
      3 C          12.1571   38.7189    9.8200 C.ar    1  UNL1        0.1542
      4 C          11.1262   39.3348    9.1042 C.ar    1  UNL1        0.0529
      5 C          10.4875   40.4705    9.6146 C.ar    1  UNL1        0.0537
      6 C          10.8895   40.9840   10.8576 C.ar    1  UNL1        0.0162
      7 C          11.9165   40.3680   11.5782 C.ar    1  UNL1        0.0190
      8 C          12.5495   39.2370   11.0579 C.ar    1  UNL1        0.0850
      9 C          14.2553   37.4513   11.2595 C.2     1  UNL1        0.2732
     10 O          12.7851   37.5843    9.2947 O.3     1  UNL1       -0.4618
     11 O          15.1477   36.8891   11.9496 O.2     1  UNL1       -0.2704
     12 N          13.5844   38.5934   11.7916 N.am    1  UNL1       -0.2783
     13 H          13.8410   38.9397   12.6768 H       1  UNL1        0.1551
     14 C           9.0444   42.4527    8.8627 C.2     1  UNL1        0.2843
     15 O           9.6472   43.2910    9.5858 O.2     1  UNL1       -0.2665
     16 N           9.4359   41.0732    8.8481 N.am    1  UNL1       -0.2778
     17 H           8.9299   40.4777    8.2493 H       1  UNL1        0.1553
     18 C           7.9281   42.8899    8.0181 C.ar    1  UNL1        0.1994
     19 C           7.7592   42.5745    6.6817 C.ar    1  UNL1        0.0459
     20 C           6.5804   43.1980    6.3050 C.ar    1  UNL1        0.0478
     21 C           6.1285   43.8415    7.4403 C.ar    1  UNL1        0.1793
     22 O           6.9455   43.6432    8.4428 O.2     1  UNL1       -0.4423
     23 BR          4.5345   44.8799    7.5524 Br      1  UNL1       -0.0078
     24 C          15.1171   37.1567    8.9742 C.2     1  UNL1        0.3623
     25 O          15.2752   36.4442    7.9433 O.2     1  UNL1       -0.2457
     26 O          16.0730   38.1152    9.3200 O.3     1  UNL1       -0.4458
     27 C          16.9185   40.2679    9.9469 C.3     1  UNL1        0.0513
     28 C          15.7904   39.5057    9.2840 C.3     1  UNL1        0.2087
@<TRIPOS>BOND
     1    27    28    1
     2    28    26    1
     3    24    26    1
     4     1    24    1
     5     1     2    1
     6     1    10    1
     7     1     9    1
     8     3    10    1
     9     4     5   ar
    10     5    16    1
    11    14    18    1
    12    18    22   ar
    13    19    20   ar
    14    21    23    1
    15    21    22   ar
    16     6     7   ar
    17     8    12    1
    18     8     3   ar
    19    16    14   am
    20    12     9   am
    21    24    25    2
    22     3     4   ar
    23     5     6   ar
    24    14    15    2
    25    18    19   ar
    26    20    21   ar
    27     7     8   ar
    28     9    11    2
    29    16    17    1
    30    12    13    1
