@<TRIPOS>MOLECULE
MolPort-005-162-056 15076094 CSSS00159571217 MCULE-1023825194 PubChem-26408870 ZINC000015076094
 29 31 0 0 0
SMALL
GASTEIGER

@<TRIPOS>ATOM
      1 C          10.3643   40.7717    9.5008 C.3     1  UNL1        0.1093
      2 C          11.0469   42.0190    8.9595 C.3     1  UNL1        0.0418
      3 C          11.6374   41.7501    7.5764 C.3     1  UNL1        0.0744
      4 C          11.9366   39.3636    8.1525 C.3     1  UNL1        0.0744
      5 C          11.3544   39.6173    9.5425 C.3     1  UNL1        0.0418
      6 N          12.5187   40.5730    7.5498 N.3     1  UNL1       -0.2688
      7 C           8.5847   41.3515   11.1513 C.ar    1  UNL1        0.1325
      8 C           8.4704   41.5238   12.5182 C.ar    1  UNL1        0.0565
      9 C           9.7589   41.2799   12.9824 C.ar    1  UNL1        0.1230
     10 N          10.5695   40.9844   11.9441 N.ar    1  UNL1       -0.1666
     11 N           9.8472   41.0305   10.8387 N.ar    1  UNL1       -0.2394
     12 C           6.1350   41.3905   10.4512 C.2     1  UNL1        0.2271
     13 O           5.7188   41.1608   11.6199 O.2     1  UNL1       -0.2747
     14 N           7.5374   41.4875   10.1814 N.am    1  UNL1       -0.2695
     15 H           7.8059   41.6624    9.2504 H       1  UNL1        0.1562
     16 C           5.1740   41.5600    9.3121 C.3     1  UNL1        0.0854
     17 C           2.7078   41.3535    9.4044 C.3     1  UNL1        0.0005
     18 C           3.8809   42.2602    9.7102 C.3     1  UNL1        0.0091
     19 C           3.7250   43.5519    8.9302 C.3     1  UNL1        0.0005
     20 C          13.9059   40.8497    7.9576 C.3     1  UNL1        0.0992
     21 C          14.4997   42.0881    7.3547 C.ar    1  UNL1       -0.0051
     22 C          13.7424   42.8673    6.4728 C.ar    1  UNL1        0.0002
     23 C          14.2816   44.0368    5.9301 C.ar    1  UNL1        0.0372
     24 C          15.5742   44.4406    6.2772 C.ar    1  UNL1        0.1441
     25 C          16.3250   43.6769    7.1831 C.ar    1  UNL1        0.0910
     26 C          15.7812   42.5096    7.7267 C.ar    1  UNL1        0.0115
     27 O          16.1014   45.6007    5.7234 O.3     1  UNL1       -0.5047
     28 CL         17.9451   44.1628    7.6466 Cl      1  UNL1       -0.0791
     29 H          16.9671   45.8773    5.9516 H       1  UNL1        0.2922
@<TRIPOS>BOND
     1    17    18    1
     2    18    19    1
     3    18    16    1
     4    16    12    1
     5    12    14   am
     6     8     9   ar
     7     1    11    1
     8     1     2    1
     9     2     3    1
    10     3     6    1
    11    20     6    1
    12    20    21    1
    13    22    23   ar
    14    24    27    1
    15    24    25   ar
    16    25    28    1
    17    26    21   ar
    18     4     6    1
    19     4     5    1
    20     5     1    1
    21    14     7    1
    22    11    10   ar
    23    11     7   ar
    24    12    13    2
    25     7     8   ar
    26     9    10   ar
    27    21    22   ar
    28    23    24   ar
    29    25    26   ar
    30    27    29    1
    31    14    15    1
@<TRIPOS>MOLECULE
MolPort-005-162-056 15076094 CSSS00159571217 MCULE-1023825194 PubChem-26408870 ZINC000015076094
 29 31 0 0 0
SMALL
GASTEIGER

@<TRIPOS>ATOM
      1 C           8.8824   41.3758    8.0546 C.3     1  UNL1        0.1093
      2 C           9.5961   40.4987    7.0368 C.3     1  UNL1        0.0418
      3 C          10.6580   39.6388    7.7203 C.3     1  UNL1        0.0744
      4 C          10.9496   41.3637    9.4686 C.3     1  UNL1        0.0744
      5 C           9.8944   42.2388    8.7933 C.3     1  UNL1        0.0418
      6 N          11.5948   40.4274    8.5350 N.3     1  UNL1       -0.2688
      7 C           6.7064   42.5816    7.8583 C.ar    1  UNL1        0.1325
      8 C           6.0592   43.3866    6.9393 C.ar    1  UNL1        0.0565
      9 C           6.9681   43.4723    5.8897 C.ar    1  UNL1        0.1230
     10 N           8.0750   42.7581    6.1854 N.ar    1  UNL1       -0.1666
     11 N           7.9057   42.2226    7.3813 N.ar    1  UNL1       -0.2394
     12 C           5.0905   42.7503    9.8212 C.2     1  UNL1        0.2271
     13 O           4.4552   43.7149    9.3133 O.2     1  UNL1       -0.2747
     14 N           6.2055   42.1692    9.1369 N.am    1  UNL1       -0.2695
     15 H           6.6678   41.4228    9.5823 H       1  UNL1        0.1562
     16 C           4.7011   42.1917   11.1576 C.3     1  UNL1        0.0854
     17 C           3.7927   39.9271   11.5817 C.3     1  UNL1        0.0005
     18 C           3.4498   41.3241   11.1096 C.3     1  UNL1        0.0091
     19 C           2.9191   41.2509    9.6904 C.3     1  UNL1        0.0005
     20 C          12.7180   41.0009    7.7758 C.3     1  UNL1        0.0992
     21 C          14.0575   40.8549    8.4347 C.ar    1  UNL1       -0.0051
     22 C          14.2794   39.8123    9.3414 C.ar    1  UNL1        0.0002
     23 C          15.5340   39.6557    9.9368 C.ar    1  UNL1        0.0372
     24 C          16.5763   40.5312    9.6182 C.ar    1  UNL1        0.1441
     25 C          16.3650   41.5597    8.6880 C.ar    1  UNL1        0.0910
     26 C          15.1098   41.7112    8.0918 C.ar    1  UNL1        0.0115
     27 O          17.8161   40.3696   10.2241 O.3     1  UNL1       -0.5047
     28 CL         17.6555   42.6673    8.2594 Cl      1  UNL1       -0.0791
     29 H          18.5192   40.9527   10.0152 H       1  UNL1        0.2922
@<TRIPOS>BOND
     1    17    18    1
     2    18    19    1
     3    18    16    1
     4    16    12    1
     5    12    14   am
     6     8     9   ar
     7     1    11    1
     8     1     2    1
     9     2     3    1
    10     3     6    1
    11    20     6    1
    12    20    21    1
    13    22    23   ar
    14    24    27    1
    15    24    25   ar
    16    25    28    1
    17    26    21   ar
    18     4     6    1
    19     4     5    1
    20     5     1    1
    21    14     7    1
    22    11    10   ar
    23    11     7   ar
    24    12    13    2
    25     7     8   ar
    26     9    10   ar
    27    21    22   ar
    28    23    24   ar
    29    25    26   ar
    30    27    29    1
    31    14    15    1
@<TRIPOS>MOLECULE
MolPort-005-162-056 15076094 CSSS00159571217 MCULE-1023825194 PubChem-26408870 ZINC000015076094
 29 31 0 0 0
SMALL
GASTEIGER

@<TRIPOS>ATOM
      1 C          11.2541   41.4451    8.9592 C.3     1  UNL1        0.1093
      2 C          12.2679   42.0400    7.9933 C.3     1  UNL1        0.0418
      3 C          13.2822   40.9823    7.5614 C.3     1  UNL1        0.0744
      4 C          12.9838   39.7977    9.7118 C.3     1  UNL1        0.0744
      5 C          11.9723   40.8511   10.1617 C.3     1  UNL1        0.0418
      6 N          13.9227   40.3058    8.6994 N.3     1  UNL1       -0.2688
      7 C           9.1521   42.7832    8.8217 C.ar    1  UNL1        0.1325
      8 C           8.5461   43.8151    9.5139 C.ar    1  UNL1        0.0565
      9 C           9.4477   44.0898   10.5370 C.ar    1  UNL1        0.1230
     10 N          10.5120   43.2648   10.4408 N.ar    1  UNL1       -0.1666
     11 N          10.3223   42.4767    9.3975 N.ar    1  UNL1       -0.2394
     12 C           7.5586   41.1794    7.6464 C.2     1  UNL1        0.2271
     13 O           6.9655   40.8657    8.7149 O.2     1  UNL1       -0.2747
     14 N           8.6409   42.1162    7.6599 N.am    1  UNL1       -0.2695
     15 H           9.0710   42.3198    6.7980 H       1  UNL1        0.1562
     16 C           7.1524   40.5746    6.3353 C.3     1  UNL1        0.0854
     17 C           8.6490   38.7880    7.1731 C.3     1  UNL1        0.0005
     18 C           7.9953   39.3694    5.9376 C.3     1  UNL1        0.0091
     19 C           9.0742   39.7876    4.9567 C.3     1  UNL1        0.0005
     20 C          15.0838   41.0232    9.2509 C.3     1  UNL1        0.0992
     21 C          15.7898   41.9152    8.2733 C.ar    1  UNL1       -0.0051
     22 C          17.1839   42.0295    8.3134 C.ar    1  UNL1        0.0002
     23 C          17.8484   42.8377    7.3870 C.ar    1  UNL1        0.0372
     24 C          17.1243   43.5239    6.4076 C.ar    1  UNL1        0.1441
     25 C          15.7295   43.3886    6.3470 C.ar    1  UNL1        0.0910
     26 C          15.0685   42.5766    7.2730 C.ar    1  UNL1        0.0115
     27 O          17.7966   44.3310    5.4983 O.3     1  UNL1       -0.5047
     28 CL         14.7943   44.2279    5.1235 Cl      1  UNL1       -0.0791
     29 H          17.3177   44.7938    4.8392 H       1  UNL1        0.2922
@<TRIPOS>BOND
     1    17    18    1
     2    18    19    1
     3    18    16    1
     4    16    12    1
     5    12    14   am
     6     8     9   ar
     7     1    11    1
     8     1     2    1
     9     2     3    1
    10     3     6    1
    11    20     6    1
    12    20    21    1
    13    22    23   ar
    14    24    27    1
    15    24    25   ar
    16    25    28    1
    17    26    21   ar
    18     4     6    1
    19     4     5    1
    20     5     1    1
    21    14     7    1
    22    11    10   ar
    23    11     7   ar
    24    12    13    2
    25     7     8   ar
    26     9    10   ar
    27    21    22   ar
    28    23    24   ar
    29    25    26   ar
    30    27    29    1
    31    14    15    1
@<TRIPOS>MOLECULE
MolPort-005-162-056 15076094 CSSS00159571217 MCULE-1023825194 PubChem-26408870 ZINC000015076094
 29 31 0 0 0
SMALL
GASTEIGER

@<TRIPOS>ATOM
      1 C           8.4913   40.7701    8.4538 C.3     1  UNL1        0.1093
      2 C           9.3870   39.9329    7.5531 C.3     1  UNL1        0.0418
      3 C          10.1318   38.8773    8.3686 C.3     1  UNL1        0.0744
      4 C          10.0606   40.3441   10.3586 C.3     1  UNL1        0.0744
      5 C           9.3213   41.4131    9.5549 C.3     1  UNL1        0.0418
      6 N          10.8619   39.4473    9.5110 N.3     1  UNL1       -0.2688
      7 C           6.6767   42.4175    7.9838 C.ar    1  UNL1        0.1325
      8 C           6.3526   43.3335    7.0004 C.ar    1  UNL1        0.0565
      9 C           7.3945   43.2080    6.0873 C.ar    1  UNL1        0.1230
     10 N           8.2687   42.2738    6.5183 N.ar    1  UNL1       -0.1666
     11 N           7.8238   41.8012    7.6692 N.ar    1  UNL1       -0.2394
     12 C           4.8534   42.9340    9.6873 C.2     1  UNL1        0.2271
     13 O           4.4916   43.9869    9.0937 O.2     1  UNL1       -0.2747
     14 N           5.9266   42.1382    9.1735 N.am    1  UNL1       -0.2695
     15 H           6.1706   41.3301    9.6803 H       1  UNL1        0.1562
     16 C           4.1758   42.4916   10.9501 C.3     1  UNL1        0.0854
     17 C           3.8617   40.0456   11.1771 C.3     1  UNL1        0.0005
     18 C           3.2030   41.3376   10.7428 C.3     1  UNL1        0.0091
     19 C           2.8228   41.2318    9.2781 C.3     1  UNL1        0.0005
     20 C          12.2000   39.9608    9.1751 C.3     1  UNL1        0.0992
     21 C          13.3295   39.2735    9.8834 C.ar    1  UNL1       -0.0051
     22 C          13.5096   39.4631   11.2582 C.ar    1  UNL1        0.0002
     23 C          14.5436   38.8032   11.9277 C.ar    1  UNL1        0.0372
     24 C          15.3933   37.9400   11.2296 C.ar    1  UNL1        0.1441
     25 C          15.1974   37.7258    9.8572 C.ar    1  UNL1        0.0910
     26 C          14.1599   38.3849    9.1915 C.ar    1  UNL1        0.0115
     27 O          16.4228   37.2972   11.9057 O.3     1  UNL1       -0.5047
     28 CL         16.2397   36.6408    8.9559 Cl      1  UNL1       -0.0791
     29 H          16.9961   36.7173   11.4441 H       1  UNL1        0.2922
@<TRIPOS>BOND
     1    17    18    1
     2    18    19    1
     3    18    16    1
     4    16    12    1
     5    12    14   am
     6     8     9   ar
     7     1    11    1
     8     1     2    1
     9     2     3    1
    10     3     6    1
    11    20     6    1
    12    20    21    1
    13    22    23   ar
    14    24    27    1
    15    24    25   ar
    16    25    28    1
    17    26    21   ar
    18     4     6    1
    19     4     5    1
    20     5     1    1
    21    14     7    1
    22    11    10   ar
    23    11     7   ar
    24    12    13    2
    25     7     8   ar
    26     9    10   ar
    27    21    22   ar
    28    23    24   ar
    29    25    26   ar
    30    27    29    1
    31    14    15    1
@<TRIPOS>MOLECULE
MolPort-005-162-056 15076094 CSSS00159571217 MCULE-1023825194 PubChem-26408870 ZINC000015076094
 29 31 0 0 0
SMALL
GASTEIGER

@<TRIPOS>ATOM
      1 C          10.0828   40.6682    8.1780 C.3     1  UNL1        0.1093
      2 C          10.9706   39.5125    8.6148 C.3     1  UNL1        0.0418
      3 C          12.0378   39.9965    9.5951 C.3     1  UNL1        0.0744
      4 C          11.9958   42.2400    8.5552 C.3     1  UNL1        0.0744
      5 C          10.9331   41.7696    7.5629 C.3     1  UNL1        0.0418
      6 N          12.8133   41.1351    9.0800 N.3     1  UNL1       -0.2688
      7 C           7.7737   40.1472    7.3878 C.ar    1  UNL1        0.1325
      8 C           7.1675   39.6458    6.2511 C.ar    1  UNL1        0.0565
      9 C           8.2369   39.4090    5.3935 C.ar    1  UNL1        0.1230
     10 N           9.3928   39.7533    6.0000 N.ar    1  UNL1       -0.1666
     11 N           9.1003   40.1998    7.2086 N.ar    1  UNL1       -0.2394
     12 C           6.2887   41.7152    8.7401 C.2     1  UNL1        0.2271
     13 O           6.0789   42.4834    7.7613 O.2     1  UNL1       -0.2747
     14 N           7.1196   40.5587    8.5956 N.am    1  UNL1       -0.2695
     15 H           7.2534   39.9979    9.3937 H       1  UNL1        0.1562
     16 C           5.6809   41.9964   10.0822 C.3     1  UNL1        0.0854
     17 C           3.2887   42.4219   10.5614 C.3     1  UNL1        0.0005
     18 C           4.3164   41.3474   10.2767 C.3     1  UNL1        0.0091
     19 C           4.3595   40.3812   11.4454 C.3     1  UNL1        0.0005
     20 C          13.9456   40.7531    8.2204 C.3     1  UNL1        0.0992
     21 C          14.6581   41.9050    7.5762 C.ar    1  UNL1       -0.0051
     22 C          14.0617   42.5860    6.5090 C.ar    1  UNL1        0.0002
     23 C          14.7094   43.6773    5.9237 C.ar    1  UNL1        0.0372
     24 C          15.9489   44.1019    6.4112 C.ar    1  UNL1        0.1441
     25 C          16.5358   43.4392    7.4993 C.ar    1  UNL1        0.0910
     26 C          15.8835   42.3503    8.0845 C.ar    1  UNL1        0.0115
     27 O          16.5860   45.1827    5.8143 O.3     1  UNL1       -0.5047
     28 CL         18.0846   43.9547    8.1405 Cl      1  UNL1       -0.0791
     29 H          17.4170   45.4727    6.1359 H       1  UNL1        0.2922
@<TRIPOS>BOND
     1    17    18    1
     2    18    19    1
     3    18    16    1
     4    16    12    1
     5    12    14   am
     6     8     9   ar
     7     1    11    1
     8     1     2    1
     9     2     3    1
    10     3     6    1
    11    20     6    1
    12    20    21    1
    13    22    23   ar
    14    24    27    1
    15    24    25   ar
    16    25    28    1
    17    26    21   ar
    18     4     6    1
    19     4     5    1
    20     5     1    1
    21    14     7    1
    22    11    10   ar
    23    11     7   ar
    24    12    13    2
    25     7     8   ar
    26     9    10   ar
    27    21    22   ar
    28    23    24   ar
    29    25    26   ar
    30    27    29    1
    31    14    15    1
@<TRIPOS>MOLECULE
MolPort-005-162-056 15076094 CSSS00159571217 MCULE-1023825194 PubChem-26408870 ZINC000015076094
 29 31 0 0 0
SMALL
GASTEIGER

@<TRIPOS>ATOM
      1 C          10.4071   41.9970    8.5313 C.3     1  UNL1        0.1093
      2 C           9.0514   42.6811    8.6239 C.3     1  UNL1        0.0418
      3 C           8.7958   43.1756   10.0466 C.3     1  UNL1        0.0744
      4 C          10.2178   41.3633   10.9469 C.3     1  UNL1        0.0744
      5 C          10.4777   40.8519    9.5306 C.3     1  UNL1        0.0418
      6 N           8.9607   42.1198   11.0572 N.3     1  UNL1       -0.2688
      7 C          11.7985   41.2538    6.5976 C.ar    1  UNL1        0.1325
      8 C          11.6009   40.7815    5.3135 C.ar    1  UNL1        0.0565
      9 C          10.2157   40.7590    5.1881 C.ar    1  UNL1        0.1230
     10 N           9.6470   41.1935    6.3328 N.ar    1  UNL1       -0.1666
     11 N          10.6158   41.4905    7.1806 N.ar    1  UNL1       -0.2394
     12 C          14.0967   42.3399    6.7742 C.2     1  UNL1        0.2271
     13 O          13.9550   42.9911    5.7028 O.2     1  UNL1       -0.2747
     14 N          13.0595   41.4726    7.2442 N.am    1  UNL1       -0.2695
     15 H          13.2261   40.9847    8.0829 H       1  UNL1        0.1562
     16 C          15.3571   42.4499    7.5799 C.3     1  UNL1        0.0854
     17 C          16.7955   43.7520    6.0408 C.3     1  UNL1        0.0005
     18 C          16.0900   43.7704    7.3801 C.3     1  UNL1        0.0091
     19 C          17.1174   43.9688    8.4783 C.3     1  UNL1        0.0005
     20 C           7.7639   41.2867   11.2588 C.3     1  UNL1        0.0992
     21 C           6.5097   41.8350   10.6455 C.ar    1  UNL1       -0.0051
     22 C           5.2937   41.7285   11.3298 C.ar    1  UNL1        0.0002
     23 C           4.1275   42.2623   10.7750 C.ar    1  UNL1        0.0372
     24 C           4.1736   42.9174    9.5408 C.ar    1  UNL1        0.1441
     25 C           5.3960   43.0509    8.8660 C.ar    1  UNL1        0.0910
     26 C           6.5611   42.5188    9.4257 C.ar    1  UNL1        0.0115
     27 O           3.0051   43.4358    8.9963 O.3     1  UNL1       -0.5047
     28 CL          5.4882   43.8766    7.3215 Cl      1  UNL1       -0.0791
     29 H           3.0286   43.8760    8.1696 H       1  UNL1        0.2922
@<TRIPOS>BOND
     1    17    18    1
     2    18    19    1
     3    18    16    1
     4    16    12    1
     5    12    14   am
     6     8     9   ar
     7     1    11    1
     8     1     2    1
     9     2     3    1
    10     3     6    1
    11    20     6    1
    12    20    21    1
    13    22    23   ar
    14    24    27    1
    15    24    25   ar
    16    25    28    1
    17    26    21   ar
    18     4     6    1
    19     4     5    1
    20     5     1    1
    21    14     7    1
    22    11    10   ar
    23    11     7   ar
    24    12    13    2
    25     7     8   ar
    26     9    10   ar
    27    21    22   ar
    28    23    24   ar
    29    25    26   ar
    30    27    29    1
    31    14    15    1
@<TRIPOS>MOLECULE
MolPort-005-162-056 15076094 CSSS00159571217 MCULE-1023825194 PubChem-26408870 ZINC000015076094
 29 31 0 0 0
SMALL
GASTEIGER

@<TRIPOS>ATOM
      1 C           9.7343   40.6573    8.3622 C.3     1  UNL1        0.1093
      2 C          10.7273   39.5262    8.5840 C.3     1  UNL1        0.0418
      3 C          11.9224   40.0139    9.4013 C.3     1  UNL1        0.0744
      4 C          11.6197   42.2995    8.5063 C.3     1  UNL1        0.0744
      5 C          10.4265   41.8262    7.6772 C.3     1  UNL1        0.0418
      6 N          12.5560   41.2115    8.8291 N.3     1  UNL1       -0.2688
      7 C           7.4164   40.7606    7.4433 C.ar    1  UNL1        0.1325
      8 C           6.6244   40.0334    6.5743 C.ar    1  UNL1        0.0565
      9 C           7.4571   38.9941    6.1725 C.ar    1  UNL1        0.1230
     10 N           8.6595   39.1141    6.7747 N.ar    1  UNL1       -0.1666
     11 N           8.6238   40.1886    7.5427 N.ar    1  UNL1       -0.2394
     12 C           6.6399   43.1851    7.5500 C.2     1  UNL1        0.2271
     13 O           6.5976   43.3061    6.2948 O.2     1  UNL1       -0.2747
     14 N           7.0413   41.9497    8.1513 N.am    1  UNL1       -0.2695
     15 H           7.0616   41.9133    9.1350 H       1  UNL1        0.1562
     16 C           6.2792   44.3328    8.4457 C.3     1  UNL1        0.0854
     17 C           4.2597   43.0159    9.0121 C.3     1  UNL1        0.0005
     18 C           4.7905   44.4110    8.7596 C.3     1  UNL1        0.0091
     19 C           4.0416   45.0217    7.5903 C.3     1  UNL1        0.0005
     20 C          13.5441   40.9254    7.7760 C.3     1  UNL1        0.0992
     21 C          14.2522   42.1333    7.2381 C.ar    1  UNL1       -0.0051
     22 C          13.6278   42.9391    6.2794 C.ar    1  UNL1        0.0002
     23 C          14.2722   44.0809    5.7956 C.ar    1  UNL1        0.0372
     24 C          15.5369   44.4305    6.2780 C.ar    1  UNL1        0.1441
     25 C          16.1529   43.6406    7.2599 C.ar    1  UNL1        0.0910
     26 C          15.5039   42.5012    7.7440 C.ar    1  UNL1        0.0115
     27 O          16.1701   45.5634    5.7820 O.3     1  UNL1       -0.5047
     28 CL         17.7342   44.0589    7.8927 Cl      1  UNL1       -0.0791
     29 H          17.0178   45.8037    6.1007 H       1  UNL1        0.2922
@<TRIPOS>BOND
     1    17    18    1
     2    18    19    1
     3    18    16    1
     4    16    12    1
     5    12    14   am
     6     8     9   ar
     7     1    11    1
     8     1     2    1
     9     2     3    1
    10     3     6    1
    11    20     6    1
    12    20    21    1
    13    22    23   ar
    14    24    27    1
    15    24    25   ar
    16    25    28    1
    17    26    21   ar
    18     4     6    1
    19     4     5    1
    20     5     1    1
    21    14     7    1
    22    11    10   ar
    23    11     7   ar
    24    12    13    2
    25     7     8   ar
    26     9    10   ar
    27    21    22   ar
    28    23    24   ar
    29    25    26   ar
    30    27    29    1
    31    14    15    1
@<TRIPOS>MOLECULE
MolPort-005-162-056 15076094 CSSS00159571217 MCULE-1023825194 PubChem-26408870 ZINC000015076094
 29 31 0 0 0
SMALL
GASTEIGER

@<TRIPOS>ATOM
      1 C          11.3017   39.8999    9.6886 C.3     1  UNL1        0.1093
      2 C          11.9457   40.6320    8.5207 C.3     1  UNL1        0.0418
      3 C          13.1680   39.8670    8.0161 C.3     1  UNL1        0.0744
      4 C          13.5374   38.9373   10.2780 C.3     1  UNL1        0.0744
      5 C          12.3214   39.7015   10.8001 C.3     1  UNL1        0.0418
      6 N          14.1312   39.5595    9.0843 N.3     1  UNL1       -0.2688
      7 C           9.2548   41.3064    9.4441 C.ar    1  UNL1        0.1325
      8 C           8.3296   41.9224   10.2661 C.ar    1  UNL1        0.0565
      9 C           8.7661   41.5939   11.5454 C.ar    1  UNL1        0.1230
     10 N           9.8786   40.8332   11.4664 N.ar    1  UNL1       -0.1666
     11 N          10.1659   40.6649   10.1878 N.ar    1  UNL1       -0.2394
     12 C           8.6314   40.3758    7.1555 C.2     1  UNL1        0.2271
     13 O           7.9830   39.4086    7.6414 O.2     1  UNL1       -0.2747
     14 N           9.2736   41.3274    8.0105 N.am    1  UNL1       -0.2695
     15 H           9.7705   42.0586    7.5773 H       1  UNL1        0.1562
     16 C           8.7541   40.5508    5.6709 C.3     1  UNL1        0.0854
     17 C          11.0978   40.5444    4.8706 C.3     1  UNL1        0.0005
     18 C           9.8544   39.6996    5.0499 C.3     1  UNL1        0.0091
     19 C           9.4103   39.1783    3.6963 C.3     1  UNL1        0.0005
     20 C          15.0793   40.6482    9.3723 C.3     1  UNL1        0.0992
     21 C          15.2390   41.6475    8.2652 C.ar    1  UNL1       -0.0051
     22 C          14.1475   41.9659    7.4494 C.ar    1  UNL1        0.0002
     23 C          14.2842   42.9167    6.4344 C.ar    1  UNL1        0.0372
     24 C          15.5078   43.5640    6.2393 C.ar    1  UNL1        0.1441
     25 C          16.5957   43.2678    7.0739 C.ar    1  UNL1        0.0910
     26 C          16.4543   42.3188    8.0903 C.ar    1  UNL1        0.0115
     27 O          15.6325   44.5007    5.2208 O.3     1  UNL1       -0.5047
     28 CL         18.1404   44.0706    6.8612 Cl      1  UNL1       -0.0791
     29 H          16.4497   44.9384    5.0843 H       1  UNL1        0.2922
@<TRIPOS>BOND
     1    17    18    1
     2    18    19    1
     3    18    16    1
     4    16    12    1
     5    12    14   am
     6     8     9   ar
     7     1    11    1
     8     1     2    1
     9     2     3    1
    10     3     6    1
    11    20     6    1
    12    20    21    1
    13    22    23   ar
    14    24    27    1
    15    24    25   ar
    16    25    28    1
    17    26    21   ar
    18     4     6    1
    19     4     5    1
    20     5     1    1
    21    14     7    1
    22    11    10   ar
    23    11     7   ar
    24    12    13    2
    25     7     8   ar
    26     9    10   ar
    27    21    22   ar
    28    23    24   ar
    29    25    26   ar
    30    27    29    1
    31    14    15    1
@<TRIPOS>MOLECULE
MolPort-005-162-056 15076094 CSSS00159571217 MCULE-1023825194 PubChem-26408870 ZINC000015076094
 29 31 0 0 0
SMALL
GASTEIGER

@<TRIPOS>ATOM
      1 C          10.9509   40.4777    9.7918 C.3     1  UNL1        0.1093
      2 C          11.6259   41.6902    9.1682 C.3     1  UNL1        0.0418
      3 C          12.5286   41.2658    8.0110 C.3     1  UNL1        0.0744
      4 C          12.8981   39.0694    9.0862 C.3     1  UNL1        0.0744
      5 C          12.0033   39.4811   10.2545 C.3     1  UNL1        0.0418
      6 N          13.4924   40.2218    8.3908 N.3     1  UNL1       -0.2688
      7 C           8.8488   41.2808   10.8705 C.ar    1  UNL1        0.1325
      8 C           8.4058   41.6031   12.1398 C.ar    1  UNL1        0.0565
      9 C           9.5223   41.3761   12.9379 C.ar    1  UNL1        0.1230
     10 N          10.5498   40.9481   12.1739 N.ar    1  UNL1       -0.1666
     11 N          10.1303   40.8937   10.9222 N.ar    1  UNL1       -0.2394
     12 C           6.6636   41.4745    9.5744 C.2     1  UNL1        0.2271
     13 O           5.9616   41.5474   10.6203 O.2     1  UNL1       -0.2747
     14 N           8.0862   41.3391    9.6577 N.am    1  UNL1       -0.2695
     15 H           8.5834   41.2810    8.8099 H       1  UNL1        0.1562
     16 C           6.0275   41.5194    8.2168 C.3     1  UNL1        0.0854
     17 C           7.3127   42.8647    6.5823 C.3     1  UNL1        0.0005
     18 C           6.1404   42.8796    7.5401 C.3     1  UNL1        0.0091
     19 C           6.3632   43.9627    8.5787 C.3     1  UNL1        0.0005
     20 C          14.7258   40.7362    9.0082 C.3     1  UNL1        0.0992
     21 C          15.4194   41.8078    8.2206 C.ar    1  UNL1       -0.0051
     22 C          16.7511   42.1312    8.5041 C.ar    1  UNL1        0.0002
     23 C          17.4101   43.1095    7.7547 C.ar    1  UNL1        0.0372
     24 C          16.7463   43.7587    6.7097 C.ar    1  UNL1        0.1441
     25 C          15.4206   43.4164    6.4046 C.ar    1  UNL1        0.0910
     26 C          14.7657   42.4349    7.1540 C.ar    1  UNL1        0.0115
     27 O          17.4104   44.7357    5.9784 O.3     1  UNL1       -0.5047
     28 CL         14.5645   44.2051    5.0928 Cl      1  UNL1       -0.0791
     29 H          16.9716   45.1750    5.2766 H       1  UNL1        0.2922
@<TRIPOS>BOND
     1    17    18    1
     2    18    19    1
     3    18    16    1
     4    16    12    1
     5    12    14   am
     6     8     9   ar
     7     1    11    1
     8     1     2    1
     9     2     3    1
    10     3     6    1
    11    20     6    1
    12    20    21    1
    13    22    23   ar
    14    24    27    1
    15    24    25   ar
    16    25    28    1
    17    26    21   ar
    18     4     6    1
    19     4     5    1
    20     5     1    1
    21    14     7    1
    22    11    10   ar
    23    11     7   ar
    24    12    13    2
    25     7     8   ar
    26     9    10   ar
    27    21    22   ar
    28    23    24   ar
    29    25    26   ar
    30    27    29    1
    31    14    15    1
@<TRIPOS>MOLECULE
MolPort-005-162-056 15076094 CSSS00159571217 MCULE-1023825194 PubChem-26408870 ZINC000015076094
 29 31 0 0 0
SMALL
GASTEIGER

@<TRIPOS>ATOM
      1 C          11.9439   41.2530   10.2775 C.3     1  UNL1        0.1093
      2 C          11.4101   41.6072    8.8975 C.3     1  UNL1        0.0418
      3 C          10.2505   42.5957    9.0082 C.3     1  UNL1        0.0744
      4 C           9.6708   41.6881   11.2346 C.3     1  UNL1        0.0744
      5 C          10.8223   40.6884   11.1365 C.3     1  UNL1        0.0418
      6 N           9.1905   42.1343    9.9175 N.3     1  UNL1       -0.2688
      7 C          14.0725   40.3536    9.3354 C.ar    1  UNL1        0.1325
      8 C          14.8774   39.2416    9.4992 C.ar    1  UNL1        0.0565
      9 C          14.2163   38.5067   10.4779 C.ar    1  UNL1        0.1230
     10 N          13.0950   39.1563   10.8565 N.ar    1  UNL1       -0.1666
     11 N          13.0178   40.2749   10.1577 N.ar    1  UNL1       -0.2394
     12 C          15.5747   41.9187    7.9989 C.2     1  UNL1        0.2271
     13 O          16.6361   41.3759    8.4122 O.2     1  UNL1       -0.2747
     14 N          14.2955   41.4459    8.4337 N.am    1  UNL1       -0.2695
     15 H          13.5011   41.9103    8.0838 H       1  UNL1        0.1562
     16 C          15.6236   43.0779    7.0484 C.3     1  UNL1        0.0854
     17 C          17.8587   43.8675    6.3310 C.3     1  UNL1        0.0005
     18 C          16.7517   44.0576    7.3460 C.3     1  UNL1        0.0091
     19 C          17.3061   43.8090    8.7360 C.3     1  UNL1        0.0005
     20 C           8.2082   41.2349    9.2904 C.3     1  UNL1        0.0992
     21 C           6.8178   41.7908    9.2033 C.ar    1  UNL1       -0.0051
     22 C           5.7679   41.1534    9.8739 C.ar    1  UNL1        0.0002
     23 C           4.4759   41.6831    9.8184 C.ar    1  UNL1        0.0372
     24 C           4.2299   42.8596    9.1045 C.ar    1  UNL1        0.1441
     25 C           5.2856   43.5164    8.4550 C.ar    1  UNL1        0.0910
     26 C           6.5772   42.9856    8.5157 C.ar    1  UNL1        0.0115
     27 O           2.9390   43.3706    9.0500 O.3     1  UNL1       -0.5047
     28 CL          5.0109   44.9998    7.5606 Cl      1  UNL1       -0.0791
     29 H           2.7668   44.1587    8.5734 H       1  UNL1        0.2922
@<TRIPOS>BOND
     1    17    18    1
     2    18    19    1
     3    18    16    1
     4    16    12    1
     5    12    14   am
     6     8     9   ar
     7     1    11    1
     8     1     2    1
     9     2     3    1
    10     3     6    1
    11    20     6    1
    12    20    21    1
    13    22    23   ar
    14    24    27    1
    15    24    25   ar
    16    25    28    1
    17    26    21   ar
    18     4     6    1
    19     4     5    1
    20     5     1    1
    21    14     7    1
    22    11    10   ar
    23    11     7   ar
    24    12    13    2
    25     7     8   ar
    26     9    10   ar
    27    21    22   ar
    28    23    24   ar
    29    25    26   ar
    30    27    29    1
    31    14    15    1
