@<TRIPOS>MOLECULE
MolPort-046-157-968 1061704 CSSS00132863731 ZINC000001061704
 28 31 0 0 0
SMALL
GASTEIGER

@<TRIPOS>ATOM
      1 C           9.5287   41.5522    8.9534 C.ar    1  UNL1        0.0506
      2 C          10.0373   41.0008    7.7738 C.ar    1  UNL1        0.0148
      3 C          11.3037   41.3677    7.3107 C.ar    1  UNL1        0.0043
      4 C          12.0862   42.2842    8.0264 C.ar    1  UNL1        0.0364
      5 C          11.5690   42.8457    9.2021 C.ar    1  UNL1        0.0043
      6 C          10.3021   42.4809    9.6647 C.ar    1  UNL1        0.0148
      7 C          13.4198   42.7078    7.5432 C.ar    1  UNL1        0.1706
      8 C          15.4911   42.8445    7.1223 C.ar    1  UNL1        0.1934
      9 N          13.5850   43.6999    6.6426 N.ar    1  UNL1       -0.1279
     10 N          14.8811   43.7870    6.3822 N.ar    1  UNL1       -0.1220
     11 N          14.6094   42.1487    7.8689 N.ar    1  UNL1       -0.2692
     12 S          17.2689   42.6253    7.1586 S.3     1  UNL1       -0.1031
     13 H          17.5821   41.5987    7.9939 H       1  UNL1        0.1101
     14 C          14.9105   41.1411    8.8462 C.ar    1  UNL1        0.0672
     15 C          13.8769   40.4960    9.5413 C.ar    1  UNL1        0.0176
     16 C          14.1741   39.5283   10.5058 C.ar    1  UNL1        0.0015
     17 C          15.5055   39.2063   10.7860 C.ar    1  UNL1        0.0001
     18 C          16.5401   39.8547   10.1048 C.ar    1  UNL1        0.0015
     19 C          16.2440   40.8218    9.1395 C.ar    1  UNL1        0.0176
     20 O           7.0799   43.1751    9.1102 O.2     1  UNL1       -0.2693
     21 C           7.0551   41.9716    9.4866 C.2     1  UNL1        0.2555
     22 N           8.2271   41.1480    9.3992 N.am    1  UNL1       -0.2800
     23 H           8.1271   40.2079    9.6739 H       1  UNL1        0.1552
     24 C           5.8077   41.4021   10.0095 C.ar    1  UNL1        0.0831
     25 C           5.6024   40.9540   11.3054 C.ar    1  UNL1        0.0116
     26 C           4.3063   40.4561   11.5080 C.ar    1  UNL1        0.0076
     27 C           3.4856   40.5061   10.3826 C.ar    1  UNL1        0.0356
     28 S           4.3938   41.1753    9.1348 S.2     1  UNL1       -0.0819
@<TRIPOS>BOND
     1    21    22   am
     2    21    24    1
     3     2     3   ar
     4     4     7    1
     5     4     5   ar
     6     8    12    1
     7     8    11   ar
     8    15    16   ar
     9    17    18   ar
    10    19    14   ar
    11     6     1   ar
    12    24    28   ar
    13    25    26   ar
    14    27    28   ar
    15    22     1    1
    16     9    10   ar
    17    11    14    1
    18    11     7   ar
    19    21    20    2
    20     1     2   ar
    21     3     4   ar
    22     7     9   ar
    23     8    10   ar
    24    14    15   ar
    25    16    17   ar
    26    18    19   ar
    27     5     6   ar
    28    24    25   ar
    29    26    27   ar
    30    22    23    1
    31    12    13    1
@<TRIPOS>MOLECULE
MolPort-046-157-968 1061704 CSSS00132863731 ZINC000001061704
 28 31 0 0 0
SMALL
GASTEIGER

@<TRIPOS>ATOM
      1 C          19.0050   38.7669    3.9608 C.ar    1  UNL1        0.0506
      2 C          19.3959   38.7140    5.3020 C.ar    1  UNL1        0.0148
      3 C          19.2859   39.8450    6.1153 C.ar    1  UNL1        0.0043
      4 C          18.7726   41.0443    5.6026 C.ar    1  UNL1        0.0364
      5 C          18.3935   41.0988    4.2541 C.ar    1  UNL1        0.0043
      6 C          18.5051   39.9690    3.4397 C.ar    1  UNL1        0.0148
      7 C          18.6700   42.2627    6.4370 C.ar    1  UNL1        0.1706
      8 C          18.4205   43.6267    8.0382 C.ar    1  UNL1        0.1934
      9 N          19.0372   43.4826    5.9902 N.ar    1  UNL1       -0.1279
     10 N          18.8778   44.3358    6.9912 N.ar    1  UNL1       -0.1220
     11 N          18.2716   42.3222    7.7300 N.ar    1  UNL1       -0.2692
     12 S          17.9852   44.3689    9.6096 S.3     1  UNL1       -0.1031
     13 H          17.5577   43.4018   10.4649 H       1  UNL1        0.1101
     14 C          17.7150   41.2952    8.5646 C.ar    1  UNL1        0.0672
     15 C          18.5275   40.2625    9.0557 C.ar    1  UNL1        0.0176
     16 C          17.9786   39.2537    9.8531 C.ar    1  UNL1        0.0015
     17 C          16.6139   39.2674   10.1570 C.ar    1  UNL1        0.0001
     18 C          15.7970   40.2876    9.6604 C.ar    1  UNL1        0.0015
     19 C          16.3451   41.2974    8.8638 C.ar    1  UNL1        0.0176
     20 O          16.8544   37.0832    2.8675 O.2     1  UNL1       -0.2693
     21 C          18.0581   36.7699    2.6591 C.2     1  UNL1        0.2555
     22 N          19.1287   37.5847    3.1586 N.am    1  UNL1       -0.2800
     23 H          20.0430   37.3028    2.9265 H       1  UNL1        0.1552
     24 C          18.3684   35.5623    1.8849 C.ar    1  UNL1        0.0831
     25 C          19.6394   35.0928    1.5909 C.ar    1  UNL1        0.0116
     26 C          19.6195   33.9156    0.8277 C.ar    1  UNL1        0.0076
     27 C          18.3431   33.4510    0.5153 C.ar    1  UNL1        0.0356
     28 S          17.2427   34.5240    1.1990 S.2     1  UNL1       -0.0819
@<TRIPOS>BOND
     1    21    22   am
     2    21    24    1
     3     2     3   ar
     4     4     7    1
     5     4     5   ar
     6     8    12    1
     7     8    11   ar
     8    15    16   ar
     9    17    18   ar
    10    19    14   ar
    11     6     1   ar
    12    24    28   ar
    13    25    26   ar
    14    27    28   ar
    15    22     1    1
    16     9    10   ar
    17    11    14    1
    18    11     7   ar
    19    21    20    2
    20     1     2   ar
    21     3     4   ar
    22     7     9   ar
    23     8    10   ar
    24    14    15   ar
    25    16    17   ar
    26    18    19   ar
    27     5     6   ar
    28    24    25   ar
    29    26    27   ar
    30    22    23    1
    31    12    13    1
@<TRIPOS>MOLECULE
MolPort-046-157-968 1061704 CSSS00132863731 ZINC000001061704
 28 31 0 0 0
SMALL
GASTEIGER

@<TRIPOS>ATOM
      1 C          11.2667   37.9441    4.6108 C.ar    1  UNL1        0.0506
      2 C          11.1204   36.8421    3.7632 C.ar    1  UNL1        0.0148
      3 C          12.2013   35.9913    3.5169 C.ar    1  UNL1        0.0043
      4 C          13.4433   36.2233    4.1236 C.ar    1  UNL1        0.0364
      5 C          13.5915   37.3363    4.9629 C.ar    1  UNL1        0.0043
      6 C          12.5118   38.1885    5.2080 C.ar    1  UNL1        0.0148
      7 C          14.6100   35.3514    3.8587 C.ar    1  UNL1        0.1706
      8 C          15.8813   33.7014    3.4745 C.ar    1  UNL1        0.1934
      9 N          15.8321   35.8427    3.5627 N.ar    1  UNL1       -0.1279
     10 N          16.6276   34.8101    3.3257 N.ar    1  UNL1       -0.1220
     11 N          14.6102   33.9979    3.8139 N.ar    1  UNL1       -0.2692
     12 S          16.5462   32.0447    3.3227 S.3     1  UNL1       -0.1031
     13 H          15.5533   31.1375    3.5248 H       1  UNL1        0.1101
     14 C          13.5667   33.0706    4.1491 C.ar    1  UNL1        0.0672
     15 C          12.4153   32.9806    3.3529 C.ar    1  UNL1        0.0176
     16 C          11.3926   32.0897    3.6925 C.ar    1  UNL1        0.0015
     17 C          11.5118   31.2903    4.8334 C.ar    1  UNL1        0.0001
     18 C          12.6519   31.3844    5.6372 C.ar    1  UNL1        0.0015
     19 C          13.6756   32.2743    5.2980 C.ar    1  UNL1        0.0176
     20 O          10.3406   39.0766    7.1632 O.2     1  UNL1       -0.2693
     21 C           9.6931   39.3101    6.1064 C.2     1  UNL1        0.2555
     22 N          10.1337   38.7919    4.8427 N.am    1  UNL1       -0.2800
     23 H           9.6030   39.0448    4.0529 H       1  UNL1        0.1552
     24 C           8.4795   40.1330    6.1676 C.ar    1  UNL1        0.0831
     25 C           7.1769   39.6600    6.1242 C.ar    1  UNL1        0.0116
     26 C           6.2242   40.6875    6.1975 C.ar    1  UNL1        0.0076
     27 C           6.7630   41.9690    6.2978 C.ar    1  UNL1        0.0356
     28 S           8.4372   41.8058    6.2921 S.2     1  UNL1       -0.0819
@<TRIPOS>BOND
     1    21    22   am
     2    21    24    1
     3     2     3   ar
     4     4     7    1
     5     4     5   ar
     6     8    12    1
     7     8    11   ar
     8    15    16   ar
     9    17    18   ar
    10    19    14   ar
    11     6     1   ar
    12    24    28   ar
    13    25    26   ar
    14    27    28   ar
    15    22     1    1
    16     9    10   ar
    17    11    14    1
    18    11     7   ar
    19    21    20    2
    20     1     2   ar
    21     3     4   ar
    22     7     9   ar
    23     8    10   ar
    24    14    15   ar
    25    16    17   ar
    26    18    19   ar
    27     5     6   ar
    28    24    25   ar
    29    26    27   ar
    30    22    23    1
    31    12    13    1
@<TRIPOS>MOLECULE
MolPort-046-157-968 1061704 CSSS00132863731 ZINC000001061704
 28 31 0 0 0
SMALL
GASTEIGER

@<TRIPOS>ATOM
      1 C           9.9721   38.1885    5.2505 C.ar    1  UNL1        0.0506
      2 C          10.4106   39.4088    4.7280 C.ar    1  UNL1        0.0148
      3 C           9.7988   40.6041    5.1149 C.ar    1  UNL1        0.0043
      4 C           8.7453   40.5987    6.0394 C.ar    1  UNL1        0.0364
      5 C           8.2985   39.3729    6.5522 C.ar    1  UNL1        0.0043
      6 C           8.9084   38.1772    6.1643 C.ar    1  UNL1        0.0148
      7 C           8.0644   41.8488    6.4456 C.ar    1  UNL1        0.1706
      8 C           7.4687   43.6176    7.4471 C.ar    1  UNL1        0.1934
      9 N           7.1774   42.4846    5.6508 N.ar    1  UNL1       -0.1279
     10 N           6.8028   43.5891    6.2792 N.ar    1  UNL1       -0.1220
     11 N           8.2673   42.5405    7.5921 N.ar    1  UNL1       -0.2692
     12 S           7.2334   44.8973    8.6786 S.3     1  UNL1       -0.1031
     13 H           8.0425   44.6550    9.7446 H       1  UNL1        0.1101
     14 C           9.0443   42.1902    8.7474 C.ar    1  UNL1        0.0672
     15 C          10.4400   42.3297    8.7323 C.ar    1  UNL1        0.0176
     16 C          11.1956   41.9702    9.8524 C.ar    1  UNL1        0.0015
     17 C          10.5610   41.4622   10.9901 C.ar    1  UNL1        0.0001
     18 C           9.1713   41.3098   11.0064 C.ar    1  UNL1        0.0015
     19 C           8.4148   41.6699    9.8871 C.ar    1  UNL1        0.0176
     20 O           9.4017   36.5410    2.8808 O.2     1  UNL1       -0.2693
     21 C          10.3097   36.1876    3.6817 C.2     1  UNL1        0.2555
     22 N          10.6274   36.9834    4.8330 N.am    1  UNL1       -0.2800
     23 H          11.3727   36.6693    5.3943 H       1  UNL1        0.1552
     24 C          11.0599   34.9523    3.4264 C.ar    1  UNL1        0.0831
     25 C          10.5573   33.8091    2.8241 C.ar    1  UNL1        0.0116
     26 C          11.5122   32.7862    2.7208 C.ar    1  UNL1        0.0076
     27 C          12.7653   33.1112    3.2372 C.ar    1  UNL1        0.0356
     28 S          12.6679   34.6846    3.8241 S.2     1  UNL1       -0.0819
@<TRIPOS>BOND
     1    21    22   am
     2    21    24    1
     3     2     3   ar
     4     4     7    1
     5     4     5   ar
     6     8    12    1
     7     8    11   ar
     8    15    16   ar
     9    17    18   ar
    10    19    14   ar
    11     6     1   ar
    12    24    28   ar
    13    25    26   ar
    14    27    28   ar
    15    22     1    1
    16     9    10   ar
    17    11    14    1
    18    11     7   ar
    19    21    20    2
    20     1     2   ar
    21     3     4   ar
    22     7     9   ar
    23     8    10   ar
    24    14    15   ar
    25    16    17   ar
    26    18    19   ar
    27     5     6   ar
    28    24    25   ar
    29    26    27   ar
    30    22    23    1
    31    12    13    1
@<TRIPOS>MOLECULE
MolPort-046-157-968 1061704 CSSS00132863731 ZINC000001061704
 28 31 0 0 0
SMALL
GASTEIGER

@<TRIPOS>ATOM
      1 C          12.9306   41.4528    7.1625 C.ar    1  UNL1        0.0506
      2 C          12.3003   40.7082    8.1638 C.ar    1  UNL1        0.0148
      3 C          10.9970   40.2386    7.9809 C.ar    1  UNL1        0.0043
      4 C          10.3071   40.4971    6.7884 C.ar    1  UNL1        0.0364
      5 C          10.9362   41.2549    5.7910 C.ar    1  UNL1        0.0043
      6 C          12.2386   41.7266    5.9739 C.ar    1  UNL1        0.0148
      7 C           8.9171   40.0322    6.5810 C.ar    1  UNL1        0.1706
      8 C           6.8089   39.9031    6.4213 C.ar    1  UNL1        0.1934
      9 N           8.6258   38.8357    6.0278 N.ar    1  UNL1       -0.1279
     10 N           7.3070   38.7542    5.9311 N.ar    1  UNL1       -0.1220
     11 N           7.7867   40.7301    6.8443 N.ar    1  UNL1       -0.2692
     12 S           5.0529   40.2278    6.5649 S.3     1  UNL1       -0.1031
     13 H           4.8626   41.4668    7.0924 H       1  UNL1        0.1101
     14 C           7.6236   41.9909    7.5113 C.ar    1  UNL1        0.0672
     15 C           7.1459   43.1077    6.8097 C.ar    1  UNL1        0.0176
     16 C           7.0057   44.3388    7.4575 C.ar    1  UNL1        0.0015
     17 C           7.3495   44.4618    8.8072 C.ar    1  UNL1        0.0001
     18 C           7.8374   43.3550    9.5083 C.ar    1  UNL1        0.0015
     19 C           7.9771   42.1232    8.8617 C.ar    1  UNL1        0.0176
     20 O          14.1433   43.9892    6.2955 O.2     1  UNL1       -0.2693
     21 C          14.8401   43.1492    6.9276 C.2     1  UNL1        0.2555
     22 N          14.2700   41.9140    7.3848 N.am    1  UNL1       -0.2800
     23 H          14.8598   41.3219    7.9052 H       1  UNL1        0.1552
     24 C          16.2498   43.4440    7.2101 C.ar    1  UNL1        0.0831
     25 C          16.9587   43.0198    8.3236 C.ar    1  UNL1        0.0116
     26 C          18.2897   43.4639    8.3204 C.ar    1  UNL1        0.0076
     27 C          18.6385   44.2363    7.2139 C.ar    1  UNL1        0.0356
     28 S          17.2704   44.3599    6.2432 S.2     1  UNL1       -0.0819
@<TRIPOS>BOND
     1    21    22   am
     2    21    24    1
     3     2     3   ar
     4     4     7    1
     5     4     5   ar
     6     8    12    1
     7     8    11   ar
     8    15    16   ar
     9    17    18   ar
    10    19    14   ar
    11     6     1   ar
    12    24    28   ar
    13    25    26   ar
    14    27    28   ar
    15    22     1    1
    16     9    10   ar
    17    11    14    1
    18    11     7   ar
    19    21    20    2
    20     1     2   ar
    21     3     4   ar
    22     7     9   ar
    23     8    10   ar
    24    14    15   ar
    25    16    17   ar
    26    18    19   ar
    27     5     6   ar
    28    24    25   ar
    29    26    27   ar
    30    22    23    1
    31    12    13    1
@<TRIPOS>MOLECULE
MolPort-046-157-968 1061704 CSSS00132863731 ZINC000001061704
 28 31 0 0 0
SMALL
GASTEIGER

@<TRIPOS>ATOM
      1 C          12.3028   42.6830    8.1674 C.ar    1  UNL1        0.0506
      2 C          11.8619   43.1541    9.4076 C.ar    1  UNL1        0.0148
      3 C          10.5096   43.0798    9.7518 C.ar    1  UNL1        0.0043
      4 C           9.5781   42.5229    8.8648 C.ar    1  UNL1        0.0364
      5 C          10.0203   42.0630    7.6166 C.ar    1  UNL1        0.0043
      6 C          11.3719   42.1387    7.2709 C.ar    1  UNL1        0.0148
      7 C           8.1368   42.4562    9.1958 C.ar    1  UNL1        0.1706
      8 C           6.1090   41.8737    9.3834 C.ar    1  UNL1        0.1934
      9 N           7.5522   43.3020   10.0707 N.ar    1  UNL1       -0.1279
     10 N           6.2831   42.9392   10.1851 N.ar    1  UNL1       -0.1220
     11 N           7.2474   41.5420    8.7408 N.ar    1  UNL1       -0.2692
     12 S           4.5242   41.0714    9.1499 S.3     1  UNL1       -0.1031
     13 H           4.6661   40.0300    8.2869 H       1  UNL1        0.1101
     14 C           7.4092   40.5275    7.7379 C.ar    1  UNL1        0.0672
     15 C           6.5029   40.4338    6.6713 C.ar    1  UNL1        0.0176
     16 C           6.6524   39.4331    5.7064 C.ar    1  UNL1        0.0015
     17 C           7.7034   38.5165    5.8067 C.ar    1  UNL1        0.0001
     18 C           8.6027   38.5977    6.8742 C.ar    1  UNL1        0.0015
     19 C           8.4546   39.5986    7.8392 C.ar    1  UNL1        0.0176
     20 O          13.6140   44.4661    6.2293 O.2     1  UNL1       -0.2693
     21 C          14.3063   43.6380    6.8818 C.2     1  UNL1        0.2555
     22 N          13.6987   42.7721    7.8517 N.am    1  UNL1       -0.2800
     23 H          14.3031   42.1777    8.3523 H       1  UNL1        0.1552
     24 C          15.7545   43.5673    6.6550 C.ar    1  UNL1        0.0831
     25 C          16.4211   44.0211    5.5271 C.ar    1  UNL1        0.0116
     26 C          17.8068   43.8118    5.5953 C.ar    1  UNL1        0.0076
     27 C          18.2412   43.1957    6.7676 C.ar    1  UNL1        0.0356
     28 S          16.8798   42.9141    7.7146 S.2     1  UNL1       -0.0819
@<TRIPOS>BOND
     1    21    22   am
     2    21    24    1
     3     2     3   ar
     4     4     7    1
     5     4     5   ar
     6     8    12    1
     7     8    11   ar
     8    15    16   ar
     9    17    18   ar
    10    19    14   ar
    11     6     1   ar
    12    24    28   ar
    13    25    26   ar
    14    27    28   ar
    15    22     1    1
    16     9    10   ar
    17    11    14    1
    18    11     7   ar
    19    21    20    2
    20     1     2   ar
    21     3     4   ar
    22     7     9   ar
    23     8    10   ar
    24    14    15   ar
    25    16    17   ar
    26    18    19   ar
    27     5     6   ar
    28    24    25   ar
    29    26    27   ar
    30    22    23    1
    31    12    13    1
@<TRIPOS>MOLECULE
MolPort-046-157-968 1061704 CSSS00132863731 ZINC000001061704
 28 31 0 0 0
SMALL
GASTEIGER

@<TRIPOS>ATOM
      1 C          12.4801   42.3169    7.3400 C.ar    1  UNL1        0.0506
      2 C          11.7850   42.6599    8.5034 C.ar    1  UNL1        0.0148
      3 C          10.4183   42.3906    8.6155 C.ar    1  UNL1        0.0043
      4 C           9.7274   41.7639    7.5695 C.ar    1  UNL1        0.0364
      5 C          10.4234   41.4327    6.3986 C.ar    1  UNL1        0.0043
      6 C          11.7894   41.7034    6.2850 C.ar    1  UNL1        0.0148
      7 C           8.2748   41.4912    7.6541 C.ar    1  UNL1        0.1706
      8 C           6.2819   41.2257    8.3206 C.ar    1  UNL1        0.1934
      9 N           7.4996   41.3354    6.5599 N.ar    1  UNL1       -0.1279
     10 N           6.2538   41.1661    6.9775 N.ar    1  UNL1       -0.1220
     11 N           7.5326   41.4236    8.7848 N.ar    1  UNL1       -0.2692
     12 S           4.8319   40.9779    9.3433 S.3     1  UNL1       -0.1031
     13 H           5.1753   41.0990   10.6536 H       1  UNL1        0.1101
     14 C           7.9521   41.4399   10.1577 C.ar    1  UNL1        0.0672
     15 C           7.2819   42.2405   11.0946 C.ar    1  UNL1        0.0176
     16 C           7.7045   42.2684   12.4270 C.ar    1  UNL1        0.0015
     17 C           8.8036   41.5028   12.8282 C.ar    1  UNL1        0.0001
     18 C           9.4828   40.7123   11.8962 C.ar    1  UNL1        0.0015
     19 C           9.0604   40.6830   10.5637 C.ar    1  UNL1        0.0176
     20 O          13.8160   44.4295    5.7883 O.2     1  UNL1       -0.2693
     21 C          14.5072   43.6303    6.4770 C.2     1  UNL1        0.2555
     22 N          13.8827   42.6052    7.2636 N.am    1  UNL1       -0.2800
     23 H          14.4792   42.0413    7.8071 H       1  UNL1        0.1552
     24 C          15.9692   43.7581    6.4840 C.ar    1  UNL1        0.0831
     25 C          16.7687   43.9755    5.3722 C.ar    1  UNL1        0.0116
     26 C          18.1331   44.0479    5.6914 C.ar    1  UNL1        0.0076
     27 C          18.4189   43.8887    7.0463 C.ar    1  UNL1        0.0356
     28 S          16.9536   43.6555    7.8389 S.2     1  UNL1       -0.0819
@<TRIPOS>BOND
     1    21    22   am
     2    21    24    1
     3     2     3   ar
     4     4     7    1
     5     4     5   ar
     6     8    12    1
     7     8    11   ar
     8    15    16   ar
     9    17    18   ar
    10    19    14   ar
    11     6     1   ar
    12    24    28   ar
    13    25    26   ar
    14    27    28   ar
    15    22     1    1
    16     9    10   ar
    17    11    14    1
    18    11     7   ar
    19    21    20    2
    20     1     2   ar
    21     3     4   ar
    22     7     9   ar
    23     8    10   ar
    24    14    15   ar
    25    16    17   ar
    26    18    19   ar
    27     5     6   ar
    28    24    25   ar
    29    26    27   ar
    30    22    23    1
    31    12    13    1
@<TRIPOS>MOLECULE
MolPort-046-157-968 1061704 CSSS00132863731 ZINC000001061704
 28 31 0 0 0
SMALL
GASTEIGER

@<TRIPOS>ATOM
      1 C          10.5200   41.1306    9.9533 C.ar    1  UNL1        0.0506
      2 C          10.2067   42.3627   10.5348 C.ar    1  UNL1        0.0148
      3 C           9.1025   43.0941   10.0892 C.ar    1  UNL1        0.0043
      4 C           8.2874   42.5993    9.0619 C.ar    1  UNL1        0.0364
      5 C           8.6109   41.3698    8.4714 C.ar    1  UNL1        0.0043
      6 C           9.7160   40.6388    8.9150 C.ar    1  UNL1        0.0148
      7 C           7.1274   43.3668    8.5554 C.ar    1  UNL1        0.1706
      8 C           5.1965   44.1762    8.2347 C.ar    1  UNL1        0.1934
      9 N           7.2577   44.3927    7.6875 N.ar    1  UNL1       -0.1279
     10 N           6.0493   44.8964    7.4848 N.ar    1  UNL1       -0.1220
     11 N           5.8329   43.2031    8.9180 N.ar    1  UNL1       -0.2692
     12 S           3.4249   44.4434    8.2342 S.3     1  UNL1       -0.1031
     13 H           2.8338   43.5656    9.0885 H       1  UNL1        0.1101
     14 C           5.2325   42.1867    9.7351 C.ar    1  UNL1        0.0672
     15 C           5.8141   41.8259   10.9596 C.ar    1  UNL1        0.0176
     16 C           5.2373   40.8227   11.7443 C.ar    1  UNL1        0.0015
     17 C           4.0814   40.1698   11.3057 C.ar    1  UNL1        0.0001
     18 C           3.5042   40.5170   10.0805 C.ar    1  UNL1        0.0015
     19 C           4.0797   41.5207    9.2955 C.ar    1  UNL1        0.0176
     20 O          13.2981   41.2605    8.9938 O.2     1  UNL1       -0.2693
     21 C          12.9996   40.4748    9.9342 C.2     1  UNL1        0.2555
     22 N          11.6583   40.4071   10.4401 N.am    1  UNL1       -0.2800
     23 H          11.5037   39.8010   11.2004 H       1  UNL1        0.1552
     24 C          14.0405   39.6273   10.5275 C.ar    1  UNL1        0.0831
     25 C          13.8959   38.8389   11.6589 C.ar    1  UNL1        0.0116
     26 C          15.0691   38.1436   11.9888 C.ar    1  UNL1        0.0076
     27 C          16.1403   38.3765   11.1280 C.ar    1  UNL1        0.0356
     28 S          15.6086   39.4584    9.9548 S.2     1  UNL1       -0.0819
@<TRIPOS>BOND
     1    21    22   am
     2    21    24    1
     3     2     3   ar
     4     4     7    1
     5     4     5   ar
     6     8    12    1
     7     8    11   ar
     8    15    16   ar
     9    17    18   ar
    10    19    14   ar
    11     6     1   ar
    12    24    28   ar
    13    25    26   ar
    14    27    28   ar
    15    22     1    1
    16     9    10   ar
    17    11    14    1
    18    11     7   ar
    19    21    20    2
    20     1     2   ar
    21     3     4   ar
    22     7     9   ar
    23     8    10   ar
    24    14    15   ar
    25    16    17   ar
    26    18    19   ar
    27     5     6   ar
    28    24    25   ar
    29    26    27   ar
    30    22    23    1
    31    12    13    1
@<TRIPOS>MOLECULE
MolPort-046-157-968 1061704 CSSS00132863731 ZINC000001061704
 28 31 0 0 0
SMALL
GASTEIGER

@<TRIPOS>ATOM
      1 C           9.8709   39.2678    8.1207 C.ar    1  UNL1        0.0506
      2 C           9.9265   40.4064    8.9301 C.ar    1  UNL1        0.0148
      3 C           9.0066   41.4436    8.7552 C.ar    1  UNL1        0.0043
      4 C           8.0090   41.3535    7.7747 C.ar    1  UNL1        0.0364
      5 C           7.9631   40.2168    6.9556 C.ar    1  UNL1        0.0043
      6 C           8.8838   39.1802    7.1285 C.ar    1  UNL1        0.0148
      7 C           7.0391   42.4496    7.5531 C.ar    1  UNL1        0.1706
      8 C           5.4418   43.8298    7.7270 C.ar    1  UNL1        0.1934
      9 N           7.2031   43.3816    6.5903 N.ar    1  UNL1       -0.1279
     10 N           6.2020   44.2428    6.6975 N.ar    1  UNL1       -0.1220
     11 N           5.9304   42.7047    8.2877 N.ar    1  UNL1       -0.2692
     12 S           3.9220   44.6451    8.2120 S.3     1  UNL1       -0.1031
     13 H           3.3824   43.9997    9.2805 H       1  UNL1        0.1101
     14 C           5.3292   41.9309    9.3369 C.ar    1  UNL1        0.0672
     15 C           5.9740   41.7928   10.5750 C.ar    1  UNL1        0.0176
     16 C           5.3948   41.0232   11.5884 C.ar    1  UNL1        0.0015
     17 C           4.1725   40.3814   11.3670 C.ar    1  UNL1        0.0001
     18 C           3.5311   40.5057   10.1308 C.ar    1  UNL1        0.0015
     19 C           4.1091   41.2758    9.1171 C.ar    1  UNL1        0.0176
     20 O          12.0817   39.2001   10.0605 O.2     1  UNL1       -0.2693
     21 C          11.9133   38.2292    9.2733 C.2     1  UNL1        0.2555
     22 N          10.8292   38.2225    8.3330 N.am    1  UNL1       -0.2800
     23 H          10.7335   37.4165    7.7758 H       1  UNL1        0.1552
     24 C          12.8310   37.0852    9.3280 C.ar    1  UNL1        0.0831
     25 C          12.5906   35.8841    9.9777 C.ar    1  UNL1        0.0116
     26 C          13.6574   34.9806    9.8590 C.ar    1  UNL1        0.0076
     27 C          14.7396   35.4577    9.1215 C.ar    1  UNL1        0.0356
     28 S          14.3517   37.0164    8.6220 S.2     1  UNL1       -0.0819
@<TRIPOS>BOND
     1    21    22   am
     2    21    24    1
     3     2     3   ar
     4     4     7    1
     5     4     5   ar
     6     8    12    1
     7     8    11   ar
     8    15    16   ar
     9    17    18   ar
    10    19    14   ar
    11     6     1   ar
    12    24    28   ar
    13    25    26   ar
    14    27    28   ar
    15    22     1    1
    16     9    10   ar
    17    11    14    1
    18    11     7   ar
    19    21    20    2
    20     1     2   ar
    21     3     4   ar
    22     7     9   ar
    23     8    10   ar
    24    14    15   ar
    25    16    17   ar
    26    18    19   ar
    27     5     6   ar
    28    24    25   ar
    29    26    27   ar
    30    22    23    1
    31    12    13    1
@<TRIPOS>MOLECULE
MolPort-046-157-968 1061704 CSSS00132863731 ZINC000001061704
 28 31 0 0 0
SMALL
GASTEIGER

@<TRIPOS>ATOM
      1 C          10.5359   42.5812    9.1145 C.ar    1  UNL1        0.0506
      2 C           9.6560   41.7720    8.3896 C.ar    1  UNL1        0.0148
      3 C           8.3803   41.4928    8.8869 C.ar    1  UNL1        0.0043
      4 C           7.9603   42.0278   10.1124 C.ar    1  UNL1        0.0364
      5 C           8.8488   42.8283   10.8438 C.ar    1  UNL1        0.0043
      6 C          10.1253   43.1063   10.3482 C.ar    1  UNL1        0.0148
      7 C           6.6235   41.7262   10.6722 C.ar    1  UNL1        0.1706
      8 C           4.5386   41.5830   11.0177 C.ar    1  UNL1        0.1934
      9 N           6.4407   40.8577   11.6895 N.ar    1  UNL1       -0.1279
     10 N           5.1367   40.7711   11.9073 N.ar    1  UNL1       -0.1220
     11 N           5.4373   42.2048   10.2274 N.ar    1  UNL1       -0.2692
     12 S           2.7681   41.8534   10.9732 S.3     1  UNL1       -0.1031
     13 H           2.4670   42.7201    9.9694 H       1  UNL1        0.1101
     14 C           5.1686   43.2108    9.2390 C.ar    1  UNL1        0.0672
     15 C           3.8592   43.6691    9.0314 C.ar    1  UNL1        0.0176
     16 C           3.5981   44.6354    8.0552 C.ar    1  UNL1        0.0015
     17 C           4.6427   45.1427    7.2765 C.ar    1  UNL1        0.0001
     18 C           5.9480   44.6808    7.4709 C.ar    1  UNL1        0.0015
     19 C           6.2103   43.7152    8.4474 C.ar    1  UNL1        0.0176
     20 O          12.6158   40.6464    8.3492 O.2     1  UNL1       -0.2693
     21 C          12.8390   41.8817    8.2281 C.2     1  UNL1        0.2555
     22 N          11.8352   42.8488    8.5699 N.am    1  UNL1       -0.2800
     23 H          12.0621   43.7941    8.4143 H       1  UNL1        0.1552
     24 C          14.1382   42.3364    7.7189 C.ar    1  UNL1        0.0831
     25 C          15.3786   41.9107    8.1691 C.ar    1  UNL1        0.0116
     26 C          16.4418   42.5283    7.4931 C.ar    1  UNL1        0.0076
     27 C          16.0521   43.4392    6.5128 C.ar    1  UNL1        0.0356
     28 S          14.3702   43.4664    6.5004 S.2     1  UNL1       -0.0819
@<TRIPOS>BOND
     1    21    22   am
     2    21    24    1
     3     2     3   ar
     4     4     7    1
     5     4     5   ar
     6     8    12    1
     7     8    11   ar
     8    15    16   ar
     9    17    18   ar
    10    19    14   ar
    11     6     1   ar
    12    24    28   ar
    13    25    26   ar
    14    27    28   ar
    15    22     1    1
    16     9    10   ar
    17    11    14    1
    18    11     7   ar
    19    21    20    2
    20     1     2   ar
    21     3     4   ar
    22     7     9   ar
    23     8    10   ar
    24    14    15   ar
    25    16    17   ar
    26    18    19   ar
    27     5     6   ar
    28    24    25   ar
    29    26    27   ar
    30    22    23    1
    31    12    13    1
