@<TRIPOS>MOLECULE
MolPort-047-072-334 PubChem-132766320
 30 33 0 0 0
SMALL
GASTEIGER

@<TRIPOS>ATOM
      1 C          12.3788   41.8972    7.8138 C.ar    1  UNL1        0.1361
      2 C          12.7569   40.6202    8.2275 C.ar    1  UNL1        0.0492
      3 C          12.3115   40.1590    9.4661 C.ar    1  UNL1        0.0644
      4 C          11.1645   42.1961    9.8240 C.ar    1  UNL1        0.1406
      5 C          10.3045   43.0483   10.6854 C.3     1  UNL1        0.0737
      6 N          11.5244   40.9545   10.2408 N.ar    1  UNL1       -0.2348
      7 N          11.5904   42.6592    8.6200 N.ar    1  UNL1       -0.2159
      8 C          12.7050   38.7957    9.9284 C.3     1  UNL1        0.0603
      9 C          13.5829   38.8777   11.1811 C.3     1  UNL1        0.0094
     10 C          14.1186   37.5118   11.6413 C.3     1  UNL1        0.0220
     11 C          13.7505   36.3684   10.6950 C.3     1  UNL1        0.0937
     12 C          13.4213   38.0310    8.8128 C.3     1  UNL1        0.0996
     13 C          14.8019   35.9676    8.4415 C.2     1  UNL1        0.2493
     14 N          13.9852   36.7710    9.3077 N.am    1  UNL1       -0.2757
     15 O          15.0104   36.3383    7.2530 O.2     1  UNL1       -0.2699
     16 C          15.3977   34.7129    8.9292 C.2     1  UNL1        0.0611
     17 C          15.4870   33.6304    8.1640 C.2     1  UNL1        0.0422
     18 C          16.0837   32.3927    8.6688 C.ar    1  UNL1        0.1457
     19 C          15.4205   31.1912    8.7751 C.ar    1  UNL1        0.0407
     20 C          16.3600   30.3157    9.2921 C.ar    1  UNL1        0.0438
     21 C          17.5267   31.0417    9.4644 C.ar    1  UNL1        0.1796
     22 O          17.3211   32.2783    9.0806 O.2     1  UNL1       -0.4504
     23 N          12.8295   42.3820    6.5445 N.pl3   1  UNL1       -0.2767
     24 H          12.2301   42.2541    5.7741 H       1  UNL1        0.1555
     25 C          17.7542   44.2093    6.4358 C.3     1  UNL1        0.0614
     26 C          16.3198   43.8647    6.2567 C.ar    1  UNL1        0.1127
     27 C          14.0785   43.0370    6.3018 C.ar    1  UNL1        0.1868
     28 N          15.5296   44.4251    5.3154 N.ar    1  UNL1       -0.1440
     29 N          14.2802   43.9645    5.3396 N.ar    1  UNL1       -0.1256
     30 S          15.4784   42.7409    7.1869 S.2     1  UNL1       -0.0347
@<TRIPOS>BOND
     1    25    26    1
     2    26    30   ar
     3    27    23    1
     4    27    30   ar
     5     1     7   ar
     6     2     3   ar
     7     4     6   ar
     8     5     4    1
     9     8     3    1
    10     8     9    1
    11     9    10    1
    12    10    11    1
    13    11    14    1
    14    12    14    1
    15    12     8    1
    16    13    16    1
    17    17    18    1
    18    18    22   ar
    19    19    20   ar
    20    21    22   ar
    21    28    29   ar
    22    23     1    1
    23    14    13   am
    24    26    28   ar
    25    27    29   ar
    26     1     2   ar
    27     3     6   ar
    28     4     7   ar
    29    13    15    2
    30    16    17    2
    31    18    19   ar
    32    20    21   ar
    33    23    24    1
@<TRIPOS>MOLECULE
MolPort-047-072-334 PubChem-132766320
 30 33 0 0 0
SMALL
GASTEIGER

@<TRIPOS>ATOM
      1 C          17.1575   40.8881    9.2806 C.ar    1  UNL1        0.1361
      2 C          15.7802   40.7183    9.4181 C.ar    1  UNL1        0.0492
      3 C          15.3046   39.5286    9.9691 C.ar    1  UNL1        0.0644
      4 C          17.5222   38.7452   10.2184 C.ar    1  UNL1        0.1406
      5 C          18.4641   37.6803   10.6501 C.3     1  UNL1        0.0737
      6 N          16.1833   38.5650   10.3587 N.ar    1  UNL1       -0.2348
      7 N          18.0006   39.8986    9.6834 N.ar    1  UNL1       -0.2159
      8 C          13.8343   39.3260   10.1246 C.3     1  UNL1        0.0603
      9 C          13.3417   38.1938    9.2179 C.3     1  UNL1        0.0094
     10 C          11.8150   38.0113    9.2443 C.3     1  UNL1        0.0220
     11 C          11.0952   39.0634   10.0888 C.3     1  UNL1        0.0937
     12 C          13.0749   40.6228    9.8348 C.3     1  UNL1        0.0996
     13 C          10.7482   41.4644    9.4111 C.2     1  UNL1        0.2493
     14 N          11.6271   40.3940    9.7914 N.am    1  UNL1       -0.2757
     15 O          11.2243   42.6014    9.1392 O.2     1  UNL1       -0.2699
     16 C           9.2943   41.2458    9.3366 C.2     1  UNL1        0.0611
     17 C           8.4540   41.7876   10.2117 C.2     1  UNL1        0.0422
     18 C           7.0113   41.5576   10.1192 C.ar    1  UNL1        0.1457
     19 C           6.1723   41.4076   11.2001 C.ar    1  UNL1        0.0407
     20 C           4.9179   41.2144   10.6471 C.ar    1  UNL1        0.0438
     21 C           5.0788   41.2598    9.2724 C.ar    1  UNL1        0.1796
     22 O           6.3437   41.4665    8.9968 O.2     1  UNL1       -0.4504
     23 N          17.6581   42.1048    8.7164 N.pl3   1  UNL1       -0.2767
     24 H          18.5488   42.4050    9.0094 H       1  UNL1        0.1555
     25 C          14.3536   44.4587    5.3784 C.3     1  UNL1        0.0614
     26 C          15.4652   43.9882    6.2450 C.ar    1  UNL1        0.1127
     27 C          16.9723   42.9214    7.7619 C.ar    1  UNL1        0.1868
     28 N          16.6740   44.5885    6.3003 N.ar    1  UNL1       -0.1440
     29 N          17.5147   43.9949    7.1454 N.ar    1  UNL1       -0.1256
     30 S          15.3848   42.6559    7.2721 S.2     1  UNL1       -0.0347
@<TRIPOS>BOND
     1    25    26    1
     2    26    30   ar
     3    27    23    1
     4    27    30   ar
     5     1     7   ar
     6     2     3   ar
     7     4     6   ar
     8     5     4    1
     9     8     3    1
    10     8     9    1
    11     9    10    1
    12    10    11    1
    13    11    14    1
    14    12    14    1
    15    12     8    1
    16    13    16    1
    17    17    18    1
    18    18    22   ar
    19    19    20   ar
    20    21    22   ar
    21    28    29   ar
    22    23     1    1
    23    14    13   am
    24    26    28   ar
    25    27    29   ar
    26     1     2   ar
    27     3     6   ar
    28     4     7   ar
    29    13    15    2
    30    16    17    2
    31    18    19   ar
    32    20    21   ar
    33    23    24    1
@<TRIPOS>MOLECULE
MolPort-047-072-334 PubChem-132766320
 30 33 0 0 0
SMALL
GASTEIGER

@<TRIPOS>ATOM
      1 C          11.4204   37.1378    9.5813 C.ar    1  UNL1        0.1361
      2 C          10.7772   36.4413   10.6041 C.ar    1  UNL1        0.0492
      3 C          11.3561   35.2646   11.0789 C.ar    1  UNL1        0.0644
      4 C          13.1400   35.5110    9.5457 C.ar    1  UNL1        0.1406
      5 C          14.4161   35.0096    8.9732 C.3     1  UNL1        0.0737
      6 N          12.5255   34.8215   10.5416 N.ar    1  UNL1       -0.2348
      7 N          12.5884   36.6589    9.0728 N.ar    1  UNL1       -0.2159
      8 C          10.6841   34.5033   12.1726 C.3     1  UNL1        0.0603
      9 C           9.9534   35.4525   13.1274 C.3     1  UNL1        0.0094
     10 C           9.3368   34.7401   14.3427 C.3     1  UNL1        0.0220
     11 C           9.6687   33.2486   14.4012 C.3     1  UNL1        0.0937
     12 C          11.6946   33.6408   12.9325 C.3     1  UNL1        0.0996
     13 C          11.9107   32.2951   15.0405 C.2     1  UNL1        0.2493
     14 N          11.0911   33.0407   14.1267 N.am    1  UNL1       -0.2757
     15 O          13.1400   32.1408   14.7990 O.2     1  UNL1       -0.2699
     16 C          11.3273   31.7078   16.2578 C.2     1  UNL1        0.0611
     17 C          10.1508   31.0903   16.2489 C.2     1  UNL1        0.0422
     18 C           9.5888   30.5128   17.4710 C.ar    1  UNL1        0.1457
     19 C          10.3225   30.1746   18.5854 C.ar    1  UNL1        0.0407
     20 C           9.3923   29.6734   19.4799 C.ar    1  UNL1        0.0438
     21 C           8.1604   29.7406   18.8507 C.ar    1  UNL1        0.1796
     22 O           8.3197   30.2477   17.6524 O.2     1  UNL1       -0.4504
     23 N          10.8362   38.3470    9.0854 N.pl3   1  UNL1       -0.2767
     24 H          10.8114   39.1192    9.6955 H       1  UNL1        0.1555
     25 C           9.5800   39.6863    4.1629 C.3     1  UNL1        0.0614
     26 C           9.7183   39.1400    5.5378 C.ar    1  UNL1        0.1127
     27 C          10.2853   38.5272    7.7769 C.ar    1  UNL1        0.1868
     28 N           8.8848   38.2146    6.0606 N.ar    1  UNL1       -0.1440
     29 N           9.1998   37.8723    7.3084 N.ar    1  UNL1       -0.1256
     30 S          10.9173   39.5868    6.6330 S.2     1  UNL1       -0.0347
@<TRIPOS>BOND
     1    25    26    1
     2    26    30   ar
     3    27    23    1
     4    27    30   ar
     5     1     7   ar
     6     2     3   ar
     7     4     6   ar
     8     5     4    1
     9     8     3    1
    10     8     9    1
    11     9    10    1
    12    10    11    1
    13    11    14    1
    14    12    14    1
    15    12     8    1
    16    13    16    1
    17    17    18    1
    18    18    22   ar
    19    19    20   ar
    20    21    22   ar
    21    28    29   ar
    22    23     1    1
    23    14    13   am
    24    26    28   ar
    25    27    29   ar
    26     1     2   ar
    27     3     6   ar
    28     4     7   ar
    29    13    15    2
    30    16    17    2
    31    18    19   ar
    32    20    21   ar
    33    23    24    1
@<TRIPOS>MOLECULE
MolPort-047-072-334 PubChem-132766320
 30 33 0 0 0
SMALL
GASTEIGER

@<TRIPOS>ATOM
      1 C          15.9154   42.1246    7.9638 C.ar    1  UNL1        0.1361
      2 C          14.6494   41.5410    8.0013 C.ar    1  UNL1        0.0492
      3 C          13.6071   42.1593    7.3111 C.ar    1  UNL1        0.0644
      4 C          15.0798   43.8650    6.5935 C.ar    1  UNL1        0.1406
      5 C          15.3136   45.1203    5.8337 C.3     1  UNL1        0.0737
      6 N          13.8411   43.3086    6.6207 N.ar    1  UNL1       -0.2348
      7 N          16.1052   43.2745    7.2609 N.ar    1  UNL1       -0.2159
      8 C          12.2442   41.5518    7.3386 C.3     1  UNL1        0.0603
      9 C          11.4711   41.8903    6.0601 C.3     1  UNL1        0.0094
     10 C          10.0167   41.3913    6.0762 C.3     1  UNL1        0.0220
     11 C           9.6119   40.7522    7.4052 C.3     1  UNL1        0.0937
     12 C          11.4715   42.0103    8.5776 C.3     1  UNL1        0.0996
     13 C           9.1498   42.0197    9.5322 C.2     1  UNL1        0.2493
     14 N          10.0702   41.5820    8.5202 N.am    1  UNL1       -0.2757
     15 O           9.5568   42.7509   10.4773 O.2     1  UNL1       -0.2699
     16 C           7.7338   41.6212    9.4763 C.2     1  UNL1        0.0611
     17 C           6.9510   41.6470   10.5496 C.2     1  UNL1        0.0422
     18 C           5.5451   41.2467   10.4719 C.ar    1  UNL1        0.1457
     19 C           4.7201   41.4925    9.3979 C.ar    1  UNL1        0.0407
     20 C           3.5007   40.9452    9.7588 C.ar    1  UNL1        0.0438
     21 C           3.6666   40.4058   11.0234 C.ar    1  UNL1        0.1796
     22 O           4.9015   40.6062   11.4150 O.2     1  UNL1       -0.4504
     23 N          16.9935   41.4996    8.6683 N.pl3   1  UNL1       -0.2767
     24 H          17.8918   41.8855    8.5524 H       1  UNL1        0.1555
     25 C          15.5510   37.5341   11.7982 C.3     1  UNL1        0.0614
     26 C          16.2133   38.5588   10.9500 C.ar    1  UNL1        0.1127
     27 C          16.8749   40.3608    9.5269 C.ar    1  UNL1        0.1868
     28 N          17.5463   38.6025   10.7361 N.ar    1  UNL1       -0.1440
     29 N          17.9161   39.6063    9.9431 N.ar    1  UNL1       -0.1256
     30 S          15.4124   39.8000   10.1410 S.2     1  UNL1       -0.0347
@<TRIPOS>BOND
     1    25    26    1
     2    26    30   ar
     3    27    23    1
     4    27    30   ar
     5     1     7   ar
     6     2     3   ar
     7     4     6   ar
     8     5     4    1
     9     8     3    1
    10     8     9    1
    11     9    10    1
    12    10    11    1
    13    11    14    1
    14    12    14    1
    15    12     8    1
    16    13    16    1
    17    17    18    1
    18    18    22   ar
    19    19    20   ar
    20    21    22   ar
    21    28    29   ar
    22    23     1    1
    23    14    13   am
    24    26    28   ar
    25    27    29   ar
    26     1     2   ar
    27     3     6   ar
    28     4     7   ar
    29    13    15    2
    30    16    17    2
    31    18    19   ar
    32    20    21   ar
    33    23    24    1
@<TRIPOS>MOLECULE
MolPort-047-072-334 PubChem-132766320
 30 33 0 0 0
SMALL
GASTEIGER

@<TRIPOS>ATOM
      1 C           2.8880   42.1003   11.7666 C.ar    1  UNL1        0.1361
      2 C           4.2551   42.2386   11.5287 C.ar    1  UNL1        0.0492
      3 C           4.7475   41.9327   10.2602 C.ar    1  UNL1        0.0644
      4 C           2.5655   41.3797    9.5347 C.ar    1  UNL1        0.1406
      5 C           1.6518   40.9157    8.4588 C.3     1  UNL1        0.0737
      6 N           3.8948   41.5093    9.2876 N.ar    1  UNL1       -0.2348
      7 N           2.0709   41.6738   10.7653 N.ar    1  UNL1       -0.2159
      8 C           6.2075   42.0730    9.9842 C.3     1  UNL1        0.0603
      9 C           6.6180   41.2225    8.7781 C.3     1  UNL1        0.0094
     10 C           8.1325   41.2317    8.5120 C.3     1  UNL1        0.0220
     11 C           8.9266   42.0030    9.5669 C.3     1  UNL1        0.0937
     12 C           7.0308   41.6975   11.2186 C.3     1  UNL1        0.0996
     13 C           9.3909   41.1859   11.9038 C.2     1  UNL1        0.2493
     14 N           8.4626   41.6412   10.9069 N.am    1  UNL1       -0.2757
     15 O           8.9724   40.8594   13.0491 O.2     1  UNL1       -0.2699
     16 C          10.8287   41.0979   11.6003 C.2     1  UNL1        0.0611
     17 C          11.3342   40.1179   10.8589 C.2     1  UNL1        0.0422
     18 C          12.7673   40.0493   10.5687 C.ar    1  UNL1        0.1457
     19 C          13.6873   39.3631   11.3286 C.ar    1  UNL1        0.0407
     20 C          14.8974   39.5727   10.6896 C.ar    1  UNL1        0.0438
     21 C          14.6319   40.3693    9.5883 C.ar    1  UNL1        0.1796
     22 O          13.3482   40.6326    9.5508 O.2     1  UNL1       -0.4504
     23 N           2.3702   42.4112   13.0646 N.pl3   1  UNL1       -0.2767
     24 H           2.9874   42.3310   13.8274 H       1  UNL1        0.1555
     25 C          -2.0929   44.6831   14.6527 C.3     1  UNL1        0.0614
     26 C          -0.9963   43.8659   14.0713 C.ar    1  UNL1        0.1127
     27 C           1.0307   42.8287   13.3461 C.ar    1  UNL1        0.1868
     28 N          -1.2052   42.7944   13.2760 N.ar    1  UNL1       -0.1440
     29 N          -0.0762   42.2155   12.8711 N.ar    1  UNL1       -0.1256
     30 S           0.6459   44.1500   14.3140 S.2     1  UNL1       -0.0347
@<TRIPOS>BOND
     1    25    26    1
     2    26    30   ar
     3    27    23    1
     4    27    30   ar
     5     1     7   ar
     6     2     3   ar
     7     4     6   ar
     8     5     4    1
     9     8     3    1
    10     8     9    1
    11     9    10    1
    12    10    11    1
    13    11    14    1
    14    12    14    1
    15    12     8    1
    16    13    16    1
    17    17    18    1
    18    18    22   ar
    19    19    20   ar
    20    21    22   ar
    21    28    29   ar
    22    23     1    1
    23    14    13   am
    24    26    28   ar
    25    27    29   ar
    26     1     2   ar
    27     3     6   ar
    28     4     7   ar
    29    13    15    2
    30    16    17    2
    31    18    19   ar
    32    20    21   ar
    33    23    24    1
@<TRIPOS>MOLECULE
MolPort-047-072-334 PubChem-132766320
 30 33 0 0 0
SMALL
GASTEIGER

@<TRIPOS>ATOM
      1 C          15.3772   39.9384    9.2196 C.ar    1  UNL1        0.1361
      2 C          14.0466   40.3558    9.2047 C.ar    1  UNL1        0.0492
      3 C          13.0423   39.3882    9.1863 C.ar    1  UNL1        0.0644
      4 C          14.6754   37.6775    9.1980 C.ar    1  UNL1        0.1406
      5 C          15.0163   36.2313    9.1943 C.3     1  UNL1        0.0737
      6 N          13.3747   38.0684    9.1833 N.ar    1  UNL1       -0.2348
      7 N          15.6648   38.6082    9.2160 N.ar    1  UNL1       -0.2159
      8 C          11.6117   39.8130    9.1694 C.3     1  UNL1        0.0603
      9 C          10.9998   39.6101    7.7798 C.3     1  UNL1        0.0094
     10 C           9.5598   40.1371    7.6644 C.3     1  UNL1        0.0220
     11 C           9.0732   40.8475    8.9280 C.3     1  UNL1        0.0937
     12 C          11.4740   41.2705    9.6156 C.3     1  UNL1        0.0996
     13 C           9.8035   43.1437    9.6622 C.2     1  UNL1        0.2493
     14 N          10.1062   41.7610    9.4184 N.am    1  UNL1       -0.2757
     15 O          10.7102   43.9231   10.0669 O.2     1  UNL1       -0.2699
     16 C           8.4420   43.6594    9.4444 C.2     1  UNL1        0.0611
     17 C           7.4920   42.9245    8.8761 C.2     1  UNL1        0.0422
     18 C           6.1442   43.4569    8.6692 C.ar    1  UNL1        0.1457
     19 C           5.8332   44.4862    7.8099 C.ar    1  UNL1        0.0407
     20 C           4.4643   44.6494    7.9378 C.ar    1  UNL1        0.0438
     21 C           4.0375   43.7114    8.8629 C.ar    1  UNL1        0.1796
     22 O           5.0705   43.0184    9.2766 O.2     1  UNL1       -0.4504
     23 N          16.4173   40.9219    9.2386 N.pl3   1  UNL1       -0.2767
     24 H          17.1920   40.7480    9.8206 H       1  UNL1        0.1555
     25 C          15.6019   44.9925    6.0185 C.3     1  UNL1        0.0614
     26 C          16.0496   43.9856    7.0154 C.ar    1  UNL1        0.1127
     27 C          16.4251   42.1368    8.4822 C.ar    1  UNL1        0.1868
     28 N          17.1368   44.1454    7.8009 N.ar    1  UNL1       -0.1440
     29 N          17.3470   43.1156    8.6188 N.ar    1  UNL1       -0.1256
     30 S          15.2796   42.5171    7.3101 S.2     1  UNL1       -0.0347
@<TRIPOS>BOND
     1    25    26    1
     2    26    30   ar
     3    27    23    1
     4    27    30   ar
     5     1     7   ar
     6     2     3   ar
     7     4     6   ar
     8     5     4    1
     9     8     3    1
    10     8     9    1
    11     9    10    1
    12    10    11    1
    13    11    14    1
    14    12    14    1
    15    12     8    1
    16    13    16    1
    17    17    18    1
    18    18    22   ar
    19    19    20   ar
    20    21    22   ar
    21    28    29   ar
    22    23     1    1
    23    14    13   am
    24    26    28   ar
    25    27    29   ar
    26     1     2   ar
    27     3     6   ar
    28     4     7   ar
    29    13    15    2
    30    16    17    2
    31    18    19   ar
    32    20    21   ar
    33    23    24    1
@<TRIPOS>MOLECULE
MolPort-047-072-334 PubChem-132766320
 30 33 0 0 0
SMALL
GASTEIGER

@<TRIPOS>ATOM
      1 C           3.0665   42.0749   11.8041 C.ar    1  UNL1        0.1361
      2 C           4.4455   41.8879   11.7139 C.ar    1  UNL1        0.0492
      3 C           4.9761   41.3855   10.5259 C.ar    1  UNL1        0.0644
      4 C           2.8066   41.2775    9.5902 C.ar    1  UNL1        0.1406
      5 C           1.9204   40.9480    8.4440 C.3     1  UNL1        0.0737
      6 N           4.1479   41.0898    9.4871 N.ar    1  UNL1       -0.2348
      7 N           2.2750   41.7661   10.7409 N.ar    1  UNL1       -0.2159
      8 C           6.4491   41.1771   10.4083 C.3     1  UNL1        0.0603
      9 C           7.2156   42.2728   11.1557 C.3     1  UNL1        0.0094
     10 C           8.7401   42.1818   10.9764 C.3     1  UNL1        0.0220
     11 C           9.1697   41.0806   10.0063 C.3     1  UNL1        0.0937
     12 C           6.8733   41.1240    8.9387 C.3     1  UNL1        0.0996
     13 C           8.9302   41.1927    7.5014 C.2     1  UNL1        0.2493
     14 N           8.3336   41.1165    8.8057 N.am    1  UNL1       -0.2757
     15 O           8.1950   41.2421    6.4764 O.2     1  UNL1       -0.2699
     16 C          10.3944   41.2127    7.3502 C.2     1  UNL1        0.0611
     17 C          11.1416   42.1910    7.8502 C.2     1  UNL1        0.0422
     18 C          12.5965   42.1914    7.6888 C.ar    1  UNL1        0.1457
     19 C          13.4542   41.3220    8.3237 C.ar    1  UNL1        0.0407
     20 C          14.7144   41.6846    7.8799 C.ar    1  UNL1        0.0438
     21 C          14.5380   42.7462    7.0084 C.ar    1  UNL1        0.1796
     22 O          13.2588   43.0193    6.9207 O.2     1  UNL1       -0.4504
     23 N           2.5097   42.5900   13.0182 N.pl3   1  UNL1       -0.2767
     24 H           3.1394   42.8448   13.7307 H       1  UNL1        0.1555
     25 C          -2.2927   43.9470   14.6608 C.3     1  UNL1        0.0614
     26 C          -1.0678   43.3866   14.0335 C.ar    1  UNL1        0.1127
     27 C           1.1142   42.7656   13.2828 C.ar    1  UNL1        0.1868
     28 N          -1.0875   42.4176   13.0927 N.ar    1  UNL1       -0.1440
     29 N           0.1280   42.0707   12.6735 N.ar    1  UNL1       -0.1256
     30 S           0.5044   43.8691   14.3968 S.2     1  UNL1       -0.0347
@<TRIPOS>BOND
     1    25    26    1
     2    26    30   ar
     3    27    23    1
     4    27    30   ar
     5     1     7   ar
     6     2     3   ar
     7     4     6   ar
     8     5     4    1
     9     8     3    1
    10     8     9    1
    11     9    10    1
    12    10    11    1
    13    11    14    1
    14    12    14    1
    15    12     8    1
    16    13    16    1
    17    17    18    1
    18    18    22   ar
    19    19    20   ar
    20    21    22   ar
    21    28    29   ar
    22    23     1    1
    23    14    13   am
    24    26    28   ar
    25    27    29   ar
    26     1     2   ar
    27     3     6   ar
    28     4     7   ar
    29    13    15    2
    30    16    17    2
    31    18    19   ar
    32    20    21   ar
    33    23    24    1
@<TRIPOS>MOLECULE
MolPort-047-072-334 PubChem-132766320
 30 33 0 0 0
SMALL
GASTEIGER

@<TRIPOS>ATOM
      1 C           3.3413   42.0007   11.5419 C.ar    1  UNL1        0.1361
      2 C           4.6416   41.5069   11.6434 C.ar    1  UNL1        0.0492
      3 C           5.5786   41.8878   10.6831 C.ar    1  UNL1        0.0644
      4 C           3.9411   43.1981    9.5897 C.ar    1  UNL1        0.1406
      5 C           3.5614   44.1115    8.4810 C.3     1  UNL1        0.0737
      6 N           5.2116   42.7254    9.6750 N.ar    1  UNL1       -0.2348
      7 N           3.0173   42.8360   10.5176 N.ar    1  UNL1       -0.2159
      8 C           6.9755   41.3705   10.7724 C.3     1  UNL1        0.0603
      9 C           7.6964   41.9564   11.9905 C.3     1  UNL1        0.0094
     10 C           9.1780   41.5534   12.0750 C.3     1  UNL1        0.0220
     11 C           9.6517   40.7372   10.8718 C.3     1  UNL1        0.0937
     12 C           7.7487   41.6729    9.4867 C.3     1  UNL1        0.0996
     13 C          10.0877   41.6755    8.5753 C.2     1  UNL1        0.2493
     14 N           9.1713   41.3480    9.6316 N.am    1  UNL1       -0.2757
     15 O           9.6604   42.2195    7.5194 O.2     1  UNL1       -0.2699
     16 C          11.5232   41.3806    8.7142 C.2     1  UNL1        0.0611
     17 C          11.9871   40.5594    9.6502 C.2     1  UNL1        0.0422
     18 C          13.4189   40.2795    9.7707 C.ar    1  UNL1        0.1457
     19 C          14.3839   40.7555    8.9123 C.ar    1  UNL1        0.0407
     20 C          15.5737   40.2460    9.4037 C.ar    1  UNL1        0.0438
     21 C          15.2524   39.4974   10.5235 C.ar    1  UNL1        0.1796
     22 O          13.9555   39.5420   10.7098 O.2     1  UNL1       -0.4504
     23 N           2.3704   41.6170   12.5214 N.pl3   1  UNL1       -0.2767
     24 H           2.4490   40.7136   12.9047 H       1  UNL1        0.1555
     25 C          -0.8346   45.1450   14.7315 C.3     1  UNL1        0.0614
     26 C          -0.1583   44.0439   13.9978 C.ar    1  UNL1        0.1127
     27 C           1.2950   42.4367   12.9900 C.ar    1  UNL1        0.1868
     28 N          -0.8136   43.1434   13.2336 N.ar    1  UNL1       -0.1440
     29 N          -0.0048   42.2472   12.6714 N.ar    1  UNL1       -0.1256
     30 S           1.5016   43.7591   14.0095 S.2     1  UNL1       -0.0347
@<TRIPOS>BOND
     1    25    26    1
     2    26    30   ar
     3    27    23    1
     4    27    30   ar
     5     1     7   ar
     6     2     3   ar
     7     4     6   ar
     8     5     4    1
     9     8     3    1
    10     8     9    1
    11     9    10    1
    12    10    11    1
    13    11    14    1
    14    12    14    1
    15    12     8    1
    16    13    16    1
    17    17    18    1
    18    18    22   ar
    19    19    20   ar
    20    21    22   ar
    21    28    29   ar
    22    23     1    1
    23    14    13   am
    24    26    28   ar
    25    27    29   ar
    26     1     2   ar
    27     3     6   ar
    28     4     7   ar
    29    13    15    2
    30    16    17    2
    31    18    19   ar
    32    20    21   ar
    33    23    24    1
@<TRIPOS>MOLECULE
MolPort-047-072-334 PubChem-132766320
 30 33 0 0 0
SMALL
GASTEIGER

@<TRIPOS>ATOM
      1 C          16.7092   41.5883    8.7290 C.ar    1  UNL1        0.1361
      2 C          15.3938   41.1429    8.6018 C.ar    1  UNL1        0.0492
      3 C          14.5539   41.7886    7.6947 C.ar    1  UNL1        0.0644
      4 C          16.3113   43.2526    7.0931 C.ar    1  UNL1        0.1406
      5 C          16.8080   44.3919    6.2790 C.3     1  UNL1        0.0737
      6 N          15.0274   42.8304    6.9579 N.ar    1  UNL1       -0.2348
      7 N          17.1414   42.6337    7.9725 N.ar    1  UNL1       -0.2159
      8 C          13.1422   41.3286    7.5432 C.3     1  UNL1        0.0603
      9 C          12.4690   42.0195    6.3532 C.3     1  UNL1        0.0094
     10 C          10.9767   41.6761    6.2126 C.3     1  UNL1        0.0220
     11 C          10.4488   40.7993    7.3488 C.3     1  UNL1        0.0937
     12 C          12.3517   41.5726    8.8308 C.3     1  UNL1        0.0996
     13 C           9.9946   41.5983    9.6939 C.2     1  UNL1        0.2493
     14 N          10.9223   41.3090    8.6363 N.am    1  UNL1       -0.2757
     15 O          10.4169   42.0554   10.7922 O.2     1  UNL1       -0.2699
     16 C           8.5532   41.3647    9.5072 C.2     1  UNL1        0.0611
     17 C           7.6562   41.7277   10.4178 C.2     1  UNL1        0.0422
     18 C           6.2271   41.4863   10.2120 C.ar    1  UNL1        0.1457
     19 C           5.3237   41.2333   11.2191 C.ar    1  UNL1        0.0407
     20 C           4.1113   41.0702   10.5709 C.ar    1  UNL1        0.0438
     21 C           4.3591   41.2346    9.2183 C.ar    1  UNL1        0.1796
     22 O           5.6348   41.4817    9.0445 O.2     1  UNL1       -0.4504
     23 N          17.5812   40.9338    9.6567 N.pl3   1  UNL1       -0.2767
     24 H          18.1114   41.5055   10.2578 H       1  UNL1        0.1555
     25 C          19.1408   35.9773   10.4340 C.3     1  UNL1        0.0614
     26 C          18.4613   37.2654   10.1387 C.ar    1  UNL1        0.1127
     27 C          17.7469   39.5179    9.7835 C.ar    1  UNL1        0.1868
     28 N          17.1867   37.3536    9.7006 N.ar    1  UNL1       -0.1440
     29 N          16.7874   38.6085    9.5023 N.ar    1  UNL1       -0.1256
     30 S          19.1690   38.7848   10.3039 S.2     1  UNL1       -0.0347
@<TRIPOS>BOND
     1    25    26    1
     2    26    30   ar
     3    27    23    1
     4    27    30   ar
     5     1     7   ar
     6     2     3   ar
     7     4     6   ar
     8     5     4    1
     9     8     3    1
    10     8     9    1
    11     9    10    1
    12    10    11    1
    13    11    14    1
    14    12    14    1
    15    12     8    1
    16    13    16    1
    17    17    18    1
    18    18    22   ar
    19    19    20   ar
    20    21    22   ar
    21    28    29   ar
    22    23     1    1
    23    14    13   am
    24    26    28   ar
    25    27    29   ar
    26     1     2   ar
    27     3     6   ar
    28     4     7   ar
    29    13    15    2
    30    16    17    2
    31    18    19   ar
    32    20    21   ar
    33    23    24    1
@<TRIPOS>MOLECULE
MolPort-047-072-334 PubChem-132766320
 30 33 0 0 0
SMALL
GASTEIGER

@<TRIPOS>ATOM
      1 C          12.1461   41.9986    5.0015 C.ar    1  UNL1        0.1361
      2 C          11.3401   41.9843    6.1394 C.ar    1  UNL1        0.0492
      3 C          10.2690   41.0923    6.1892 C.ar    1  UNL1        0.0644
      4 C          10.8260   40.2866    4.0366 C.ar    1  UNL1        0.1406
      5 C          10.5494   39.3703    2.9001 C.3     1  UNL1        0.0737
      6 N          10.0318   40.2609    5.1382 N.ar    1  UNL1       -0.2348
      7 N          11.8731   41.1498    3.9733 N.ar    1  UNL1       -0.2159
      8 C           9.3933   41.0610    7.3973 C.3     1  UNL1        0.0603
      9 C           8.5357   42.3275    7.4813 C.3     1  UNL1        0.0094
     10 C           7.6948   42.4110    8.7661 C.3     1  UNL1        0.0220
     11 C           7.9662   41.2649    9.7413 C.3     1  UNL1        0.0937
     12 C          10.2287   40.8859    8.6677 C.3     1  UNL1        0.0996
     13 C          10.0319   41.0429   11.1653 C.2     1  UNL1        0.2493
     14 N           9.4078   41.0489    9.8718 N.am    1  UNL1       -0.2757
     15 O          11.2794   40.8743   11.2599 O.2     1  UNL1       -0.2699
     16 C           9.2271   41.2314   12.3835 C.2     1  UNL1        0.0611
     17 C           9.7179   40.9984   13.5960 C.2     1  UNL1        0.0422
     18 C           8.9003   41.1925   14.7946 C.ar    1  UNL1        0.1457
     19 C           8.5020   40.1833   15.6416 C.ar    1  UNL1        0.0407
     20 C           7.7588   40.8195   16.6213 C.ar    1  UNL1        0.0438
     21 C           7.7557   42.1676   16.3044 C.ar    1  UNL1        0.1796
     22 O           8.4483   42.3502   15.2065 O.2     1  UNL1       -0.4504
     23 N          13.2486   42.9096    4.9383 N.pl3   1  UNL1       -0.2767
     24 H          13.2430   43.5748    4.2125 H       1  UNL1        0.1555
     25 C          16.7798   42.2998    8.7803 C.3     1  UNL1        0.0614
     26 C          15.9609   42.6531    7.5918 C.ar    1  UNL1        0.1127
     27 C          14.3582   42.9343    5.8417 C.ar    1  UNL1        0.1868
     28 N          16.3476   43.5502    6.6589 N.ar    1  UNL1       -0.1440
     29 N          15.4552   43.7077    5.6831 N.ar    1  UNL1       -0.1256
     30 S          14.4510   41.9973    7.2361 S.2     1  UNL1       -0.0347
@<TRIPOS>BOND
     1    25    26    1
     2    26    30   ar
     3    27    23    1
     4    27    30   ar
     5     1     7   ar
     6     2     3   ar
     7     4     6   ar
     8     5     4    1
     9     8     3    1
    10     8     9    1
    11     9    10    1
    12    10    11    1
    13    11    14    1
    14    12    14    1
    15    12     8    1
    16    13    16    1
    17    17    18    1
    18    18    22   ar
    19    19    20   ar
    20    21    22   ar
    21    28    29   ar
    22    23     1    1
    23    14    13   am
    24    26    28   ar
    25    27    29   ar
    26     1     2   ar
    27     3     6   ar
    28     4     7   ar
    29    13    15    2
    30    16    17    2
    31    18    19   ar
    32    20    21   ar
    33    23    24    1
