@<TRIPOS>MOLECULE
MolPort-005-137-957 11949142 CHEMBL1879493 CSSS00159792005 PubChem-24793839 ZINC000011949142
 32 35 0 0 0
SMALL
GASTEIGER

@<TRIPOS>ATOM
      1 C          11.9862   41.5940    6.5307 C.ar    1  UNL1        0.1328
      2 C          11.5102   41.2789    5.2717 C.ar    1  UNL1        0.0565
      3 C          10.1432   41.1243    5.4742 C.ar    1  UNL1        0.1230
      4 N           9.8482   41.3371    6.7740 N.ar    1  UNL1       -0.1666
      5 N          10.9718   41.6267    7.4057 N.ar    1  UNL1       -0.2394
      6 C          11.0837   41.8915    8.8381 C.3     1  UNL1        0.1093
      7 C          12.4231   41.3821    9.3899 C.3     1  UNL1        0.0418
      8 C          12.4315   39.8765    9.7134 C.3     1  UNL1        0.0744
      9 C          10.1400   40.0181   10.2978 C.3     1  UNL1        0.0744
     10 C           9.8633   41.3527    9.6017 C.3     1  UNL1        0.0418
     11 N          11.1201   39.2511    9.5367 N.3     1  UNL1       -0.2688
     12 C          11.1964   37.9272   10.1331 C.3     1  UNL1        0.0989
     13 C          12.2477   37.1165    9.4525 C.2     1  UNL1       -0.0088
     14 C          13.3130   36.6869   10.1227 C.2     1  UNL1       -0.0032
     15 C          14.3788   35.8923    9.4979 C.ar    1  UNL1       -0.0003
     16 C          14.1928   34.5420    9.1596 C.ar    1  UNL1       -0.0000
     17 C          15.2288   33.8166    8.5637 C.ar    1  UNL1       -0.0000
     18 C          16.4545   34.4353    8.3026 C.ar    1  UNL1       -0.0000
     19 C          16.6445   35.7792    8.6371 C.ar    1  UNL1       -0.0000
     20 C          15.6085   36.5049    9.2332 C.ar    1  UNL1       -0.0000
     21 C          14.0811   43.0508    6.6071 C.2     1  UNL1        0.2535
     22 O          13.5218   43.9993    5.9932 O.2     1  UNL1       -0.2697
     23 N          13.3506   41.8487    6.8897 N.am    1  UNL1       -0.2659
     24 H          13.8283   41.1361    7.3727 H       1  UNL1        0.1566
     25 C          16.0795   42.2719    7.9730 C.ar    1  UNL1        0.1430
     26 C          15.4939   43.1647    7.0426 C.ar    1  UNL1        0.0876
     27 C          16.2764   44.2006    6.5080 C.ar    1  UNL1        0.0076
     28 C          17.6120   44.3577    6.8803 C.ar    1  UNL1        0.0003
     29 C          18.1872   43.4785    7.7960 C.ar    1  UNL1        0.0031
     30 C          17.4262   42.4428    8.3385 C.ar    1  UNL1        0.0371
     31 C          15.8762   40.2532    9.3988 C.3     1  UNL1        0.2525
     32 O          15.3249   41.2286    8.5241 O.3     1  UNL1       -0.4713
@<TRIPOS>BOND
     1    31    32    1
     2    25    32    1
     3    26    27   ar
     4    26    21    1
     5    28    29   ar
     6    30    25   ar
     7    21    23   am
     8     2     3   ar
     9     6     5    1
    10     6     7    1
    11     7     8    1
    12     8    11    1
    13    12    11    1
    14    12    13    1
    15    14    15    1
    16    16    17   ar
    17    18    19   ar
    18    20    15   ar
    19     9    11    1
    20     9    10    1
    21    10     6    1
    22    23     1    1
    23     5     4   ar
    24     5     1   ar
    25    25    26   ar
    26    27    28   ar
    27    29    30   ar
    28    21    22    2
    29     1     2   ar
    30     3     4   ar
    31    13    14    2
    32    15    16   ar
    33    17    18   ar
    34    19    20   ar
    35    23    24    1
@<TRIPOS>MOLECULE
MolPort-005-137-957 11949142 CHEMBL1879493 CSSS00159792005 PubChem-24793839 ZINC000011949142
 32 35 0 0 0
SMALL
GASTEIGER

@<TRIPOS>ATOM
      1 C          12.2684   40.9392    6.5115 C.ar    1  UNL1        0.1328
      2 C          11.3951   41.4481    5.5686 C.ar    1  UNL1        0.0565
      3 C          10.2412   40.6961    5.7600 C.ar    1  UNL1        0.1230
      4 N          10.4379   39.8050    6.7545 N.ar    1  UNL1       -0.1666
      5 N          11.6686   39.9639    7.2078 N.ar    1  UNL1       -0.2394
      6 C          12.2814   39.1656    8.2669 C.3     1  UNL1        0.1093
      7 C          11.2234   38.3522    9.0264 C.3     1  UNL1        0.0418
      8 C          10.4872   39.1521   10.1172 C.3     1  UNL1        0.0744
      9 C          12.4649   40.3998   10.4970 C.3     1  UNL1        0.0744
     10 C          13.1587   40.0340    9.1829 C.3     1  UNL1        0.0418
     11 N          11.0244   40.5025   10.2903 N.3     1  UNL1       -0.2688
     12 C          10.4454   41.0373   11.5121 C.3     1  UNL1        0.0989
     13 C           8.9574   41.0619   11.4079 C.2     1  UNL1       -0.0088
     14 C           8.3550   41.7843   10.4677 C.2     1  UNL1       -0.0032
     15 C           6.8942   41.8480   10.3273 C.ar    1  UNL1       -0.0003
     16 C           6.2824   42.1755    9.1063 C.ar    1  UNL1       -0.0000
     17 C           4.8887   42.2244    9.0082 C.ar    1  UNL1       -0.0000
     18 C           4.0995   41.9465   10.1278 C.ar    1  UNL1       -0.0000
     19 C           4.7036   41.6196   11.3452 C.ar    1  UNL1       -0.0000
     20 C           6.0976   41.5707   11.4435 C.ar    1  UNL1       -0.0000
     21 C          14.0272   42.6388    7.2431 C.2     1  UNL1        0.2535
     22 O          13.1604   43.5084    7.5296 O.2     1  UNL1       -0.2697
     23 N          13.6204   41.3586    6.7389 N.am    1  UNL1       -0.2659
     24 H          14.3323   40.7112    6.5307 H       1  UNL1        0.1566
     25 C          16.1388   43.9501    6.7072 C.ar    1  UNL1        0.1430
     26 C          15.4706   42.9265    7.4226 C.ar    1  UNL1        0.0876
     27 C          16.1978   42.1502    8.3388 C.ar    1  UNL1        0.0076
     28 C          17.5588   42.3748    8.5499 C.ar    1  UNL1        0.0003
     29 C          18.2153   43.3823    7.8455 C.ar    1  UNL1        0.0031
     30 C          17.5101   44.1644    6.9305 C.ar    1  UNL1        0.0371
     31 C          14.8112   44.2083    4.6288 C.3     1  UNL1        0.2525
     32 O          15.4409   44.7414    5.7862 O.3     1  UNL1       -0.4713
@<TRIPOS>BOND
     1    31    32    1
     2    25    32    1
     3    26    27   ar
     4    26    21    1
     5    28    29   ar
     6    30    25   ar
     7    21    23   am
     8     2     3   ar
     9     6     5    1
    10     6     7    1
    11     7     8    1
    12     8    11    1
    13    12    11    1
    14    12    13    1
    15    14    15    1
    16    16    17   ar
    17    18    19   ar
    18    20    15   ar
    19     9    11    1
    20     9    10    1
    21    10     6    1
    22    23     1    1
    23     5     4   ar
    24     5     1   ar
    25    25    26   ar
    26    27    28   ar
    27    29    30   ar
    28    21    22    2
    29     1     2   ar
    30     3     4   ar
    31    13    14    2
    32    15    16   ar
    33    17    18   ar
    34    19    20   ar
    35    23    24    1
@<TRIPOS>MOLECULE
MolPort-005-137-957 11949142 CHEMBL1879493 CSSS00159792005 PubChem-24793839 ZINC000011949142
 32 35 0 0 0
SMALL
GASTEIGER

@<TRIPOS>ATOM
      1 C           9.1646   43.0830   10.0335 C.ar    1  UNL1        0.1328
      2 C           9.7039   44.3287    9.7720 C.ar    1  UNL1        0.0565
      3 C          11.0352   44.0487    9.4841 C.ar    1  UNL1        0.1230
      4 N          11.2512   42.7195    9.5750 N.ar    1  UNL1       -0.1666
      5 N          10.1094   42.1417    9.9033 N.ar    1  UNL1       -0.2394
      6 C           9.9298   40.7099   10.1315 C.3     1  UNL1        0.1093
      7 C          10.7528   40.2364   11.3385 C.3     1  UNL1        0.0418
      8 C          12.2309   39.9532   11.0121 C.3     1  UNL1        0.0744
      9 C          11.5886   39.2561    8.8409 C.3     1  UNL1        0.0744
     10 C          10.2017   39.9029    8.8518 C.3     1  UNL1        0.0418
     11 N          12.5318   40.0831    9.5856 N.3     1  UNL1       -0.2688
     12 C          13.8587   39.5259    9.3783 C.3     1  UNL1        0.0989
     13 C          14.7429   40.5333    8.7234 C.2     1  UNL1       -0.0088
     14 C          14.2305   41.4793    7.9416 C.2     1  UNL1       -0.0032
     15 C          15.0577   42.4895    7.2685 C.ar    1  UNL1       -0.0003
     16 C          14.5513   43.2871    6.2295 C.ar    1  UNL1       -0.0000
     17 C          15.3666   44.2408    5.6128 C.ar    1  UNL1       -0.0000
     18 C          16.6905   44.4028    6.0304 C.ar    1  UNL1       -0.0000
     19 C          17.1992   43.6116    7.0644 C.ar    1  UNL1       -0.0000
     20 C          16.3839   42.6577    7.6812 C.ar    1  UNL1       -0.0000
     21 C           6.8237   42.1859    9.5516 C.2     1  UNL1        0.2535
     22 O           7.1261   41.8466    8.3756 O.2     1  UNL1       -0.2697
     23 N           7.8075   42.7983   10.3976 N.am    1  UNL1       -0.2659
     24 H           7.5258   43.0447   11.3082 H       1  UNL1        0.1566
     25 C           4.3540   42.7710    9.7067 C.ar    1  UNL1        0.1430
     26 C           5.4544   41.9579   10.0726 C.ar    1  UNL1        0.0876
     27 C           5.2472   40.8927   10.9634 C.ar    1  UNL1        0.0076
     28 C           3.9806   40.6295   11.4866 C.ar    1  UNL1        0.0003
     29 C           2.8985   41.4302   11.1257 C.ar    1  UNL1        0.0031
     30 C           3.0840   42.4936   10.2420 C.ar    1  UNL1        0.0371
     31 C           5.8067   44.3548    8.4697 C.3     1  UNL1        0.2525
     32 O           4.5286   43.8412    8.8203 O.3     1  UNL1       -0.4713
@<TRIPOS>BOND
     1    31    32    1
     2    25    32    1
     3    26    27   ar
     4    26    21    1
     5    28    29   ar
     6    30    25   ar
     7    21    23   am
     8     2     3   ar
     9     6     5    1
    10     6     7    1
    11     7     8    1
    12     8    11    1
    13    12    11    1
    14    12    13    1
    15    14    15    1
    16    16    17   ar
    17    18    19   ar
    18    20    15   ar
    19     9    11    1
    20     9    10    1
    21    10     6    1
    22    23     1    1
    23     5     4   ar
    24     5     1   ar
    25    25    26   ar
    26    27    28   ar
    27    29    30   ar
    28    21    22    2
    29     1     2   ar
    30     3     4   ar
    31    13    14    2
    32    15    16   ar
    33    17    18   ar
    34    19    20   ar
    35    23    24    1
@<TRIPOS>MOLECULE
MolPort-005-137-957 11949142 CHEMBL1879493 CSSS00159792005 PubChem-24793839 ZINC000011949142
 32 35 0 0 0
SMALL
GASTEIGER

@<TRIPOS>ATOM
      1 C          11.9816   40.9373    6.5172 C.ar    1  UNL1        0.1328
      2 C          11.3855   40.8077    5.2767 C.ar    1  UNL1        0.0565
      3 C          10.1008   40.3713    5.5813 C.ar    1  UNL1        0.1230
      4 N           9.9643   40.2553    6.9191 N.ar    1  UNL1       -0.1666
      5 N          11.1086   40.6060    7.4784 N.ar    1  UNL1       -0.2394
      6 C          11.3809   40.5860    8.9136 C.3     1  UNL1        0.1093
      7 C          10.1264   40.1932    9.7074 C.3     1  UNL1        0.0418
      8 C           9.1539   41.3617    9.9539 C.3     1  UNL1        0.0744
      9 C          11.0016   42.8410   10.0546 C.3     1  UNL1        0.0744
     10 C          12.0104   41.9085    9.3802 C.3     1  UNL1        0.0418
     11 N           9.6758   42.6439    9.4787 N.3     1  UNL1       -0.2688
     12 C           8.8088   43.6809   10.0145 C.3     1  UNL1        0.0989
     13 C           7.3812   43.3566    9.7274 C.2     1  UNL1       -0.0088
     14 C           6.7540   42.3983   10.4033 C.2     1  UNL1       -0.0032
     15 C           5.3524   42.0359   10.1542 C.ar    1  UNL1       -0.0003
     16 C           4.4762   42.8962    9.4727 C.ar    1  UNL1       -0.0000
     17 C           3.1488   42.5176    9.2511 C.ar    1  UNL1       -0.0000
     18 C           2.6901   41.2790    9.7083 C.ar    1  UNL1       -0.0000
     19 C           3.5584   40.4191   10.3868 C.ar    1  UNL1       -0.0000
     20 C           4.8861   40.7976   10.6086 C.ar    1  UNL1       -0.0000
     21 C          13.8519   42.6739    6.5743 C.2     1  UNL1        0.2535
     22 O          13.1053   43.5865    6.1280 O.2     1  UNL1       -0.2697
     23 N          13.3281   41.3540    6.7793 N.am    1  UNL1       -0.2659
     24 H          13.9479   40.6746    7.1309 H       1  UNL1        0.1566
     25 C          15.9845   42.2429    7.8902 C.ar    1  UNL1        0.1430
     26 C          15.2735   42.9515    6.8912 C.ar    1  UNL1        0.0876
     27 C          15.9349   43.9577    6.1692 C.ar    1  UNL1        0.0076
     28 C          17.2724   44.2635    6.4232 C.ar    1  UNL1        0.0003
     29 C          17.9712   43.5654    7.4065 C.ar    1  UNL1        0.0031
     30 C          17.3316   42.5621    8.1349 C.ar    1  UNL1        0.0371
     31 C          16.0444   40.3968    9.5447 C.3     1  UNL1        0.2525
     32 O          15.3525   41.2337    8.6276 O.3     1  UNL1       -0.4713
@<TRIPOS>BOND
     1    31    32    1
     2    25    32    1
     3    26    27   ar
     4    26    21    1
     5    28    29   ar
     6    30    25   ar
     7    21    23   am
     8     2     3   ar
     9     6     5    1
    10     6     7    1
    11     7     8    1
    12     8    11    1
    13    12    11    1
    14    12    13    1
    15    14    15    1
    16    16    17   ar
    17    18    19   ar
    18    20    15   ar
    19     9    11    1
    20     9    10    1
    21    10     6    1
    22    23     1    1
    23     5     4   ar
    24     5     1   ar
    25    25    26   ar
    26    27    28   ar
    27    29    30   ar
    28    21    22    2
    29     1     2   ar
    30     3     4   ar
    31    13    14    2
    32    15    16   ar
    33    17    18   ar
    34    19    20   ar
    35    23    24    1
@<TRIPOS>MOLECULE
MolPort-005-137-957 11949142 CHEMBL1879493 CSSS00159792005 PubChem-24793839 ZINC000011949142
 32 35 0 0 0
SMALL
GASTEIGER

@<TRIPOS>ATOM
      1 C           8.3866   42.0623   11.2353 C.ar    1  UNL1        0.1328
      2 C           8.3498   41.6993   12.5686 C.ar    1  UNL1        0.0565
      3 C           9.5158   40.9596   12.7328 C.ar    1  UNL1        0.1230
      4 N          10.1853   40.8988   11.5624 N.ar    1  UNL1       -0.1666
      5 N           9.4953   41.5752   10.6615 N.ar    1  UNL1       -0.2394
      6 C           9.8681   41.7212    9.2565 C.3     1  UNL1        0.1093
      7 C           9.9340   40.3549    8.5586 C.3     1  UNL1        0.0418
      8 C          11.2586   39.6028    8.7853 C.3     1  UNL1        0.0744
      9 C          12.3927   41.6813    8.8624 C.3     1  UNL1        0.0744
     10 C          11.1549   42.5482    9.1042 C.3     1  UNL1        0.0418
     11 N          12.2394   40.3934    9.5303 N.3     1  UNL1       -0.2688
     12 C          13.5116   39.6963    9.4308 C.3     1  UNL1        0.0989
     13 C          14.6157   40.6721    9.1977 C.2     1  UNL1       -0.0088
     14 C          14.7063   41.3317    8.0464 C.2     1  UNL1       -0.0032
     15 C          15.7773   42.2968    7.7647 C.ar    1  UNL1       -0.0003
     16 C          15.6371   43.2910    6.7827 C.ar    1  UNL1       -0.0000
     17 C          16.6764   44.1947    6.5427 C.ar    1  UNL1       -0.0000
     18 C          17.8598   44.1105    7.2817 C.ar    1  UNL1       -0.0000
     19 C          18.0040   43.1231    8.2604 C.ar    1  UNL1       -0.0000
     20 C          16.9646   42.2191    8.5006 C.ar    1  UNL1       -0.0000
     21 C           6.4623   42.3272    9.5788 C.2     1  UNL1        0.2535
     22 O           6.4502   41.0982    9.2978 O.2     1  UNL1       -0.2697
     23 N           7.4054   42.8363   10.5327 N.am    1  UNL1       -0.2659
     24 H           7.3763   43.8021   10.7213 H       1  UNL1        0.1566
     25 C           4.1153   43.2256    9.1912 C.ar    1  UNL1        0.1430
     26 C           5.5070   43.2574    8.9303 C.ar    1  UNL1        0.0876
     27 C           6.0079   44.2042    8.0227 C.ar    1  UNL1        0.0076
     28 C           5.1570   45.1055    7.3818 C.ar    1  UNL1        0.0003
     29 C           3.7877   45.0734    7.6394 C.ar    1  UNL1        0.0031
     30 C           3.2706   44.1398    8.5378 C.ar    1  UNL1        0.0371
     31 C           2.7892   41.1885    9.6820 C.3     1  UNL1        0.2525
     32 O           3.5851   42.2927   10.0913 O.3     1  UNL1       -0.4713
@<TRIPOS>BOND
     1    31    32    1
     2    25    32    1
     3    26    27   ar
     4    26    21    1
     5    28    29   ar
     6    30    25   ar
     7    21    23   am
     8     2     3   ar
     9     6     5    1
    10     6     7    1
    11     7     8    1
    12     8    11    1
    13    12    11    1
    14    12    13    1
    15    14    15    1
    16    16    17   ar
    17    18    19   ar
    18    20    15   ar
    19     9    11    1
    20     9    10    1
    21    10     6    1
    22    23     1    1
    23     5     4   ar
    24     5     1   ar
    25    25    26   ar
    26    27    28   ar
    27    29    30   ar
    28    21    22    2
    29     1     2   ar
    30     3     4   ar
    31    13    14    2
    32    15    16   ar
    33    17    18   ar
    34    19    20   ar
    35    23    24    1
@<TRIPOS>MOLECULE
MolPort-005-137-957 11949142 CHEMBL1879493 CSSS00159792005 PubChem-24793839 ZINC000011949142
 32 35 0 0 0
SMALL
GASTEIGER

@<TRIPOS>ATOM
      1 C          12.0359   41.1477    9.3980 C.ar    1  UNL1        0.1328
      2 C          10.6600   41.2633    9.3313 C.ar    1  UNL1        0.0565
      3 C          10.2098   40.1881   10.0895 C.ar    1  UNL1        0.1230
      4 N          11.2643   39.4927   10.5651 N.ar    1  UNL1       -0.1666
      5 N          12.3676   40.0857   10.1449 N.ar    1  UNL1       -0.2394
      6 C          13.7253   39.6205   10.4181 C.3     1  UNL1        0.1093
      7 C          14.3753   39.0425    9.1526 C.3     1  UNL1        0.0418
      8 C          13.9819   37.5823    8.8615 C.3     1  UNL1        0.0744
      9 C          13.8327   37.1876   11.1927 C.3     1  UNL1        0.0744
     10 C          13.7540   38.6564   11.6151 C.3     1  UNL1        0.0418
     11 N          13.1526   36.9973    9.9161 N.3     1  UNL1       -0.2688
     12 C          13.0905   35.5666    9.6640 C.3     1  UNL1        0.0989
     13 C          14.4677   35.0042    9.5508 C.2     1  UNL1       -0.0088
     14 C          14.8837   34.4520    8.4147 C.2     1  UNL1       -0.0032
     15 C          16.2263   33.8782    8.2540 C.ar    1  UNL1       -0.0003
     16 C          16.5560   32.6132    8.7671 C.ar    1  UNL1       -0.0000
     17 C          17.8435   32.0969    8.5934 C.ar    1  UNL1       -0.0000
     18 C          18.8075   32.8405    7.9068 C.ar    1  UNL1       -0.0000
     19 C          18.4841   34.0999    7.3938 C.ar    1  UNL1       -0.0000
     20 C          17.1964   34.6164    7.5675 C.ar    1  UNL1       -0.0000
     21 C          13.3502   42.0007    7.3826 C.2     1  UNL1        0.2535
     22 O          12.7950   41.1873    6.5954 O.2     1  UNL1       -0.2697
     23 N          12.9974   42.0083    8.7733 N.am    1  UNL1       -0.2659
     24 H          13.4560   42.6619    9.3492 H       1  UNL1        0.1566
     25 C          15.7155   42.9323    7.3246 C.ar    1  UNL1        0.1430
     26 C          14.3697   42.9548    6.8838 C.ar    1  UNL1        0.0876
     27 C          13.9793   43.9159    5.9378 C.ar    1  UNL1        0.0076
     28 C          14.8947   44.8399    5.4324 C.ar    1  UNL1        0.0003
     29 C          16.2187   44.8167    5.8668 C.ar    1  UNL1        0.0031
     30 C          16.6262   43.8695    6.8064 C.ar    1  UNL1        0.0371
     31 C          17.4680   41.9213    8.7584 C.3     1  UNL1        0.2525
     32 O          16.1356   41.9857    8.2676 O.3     1  UNL1       -0.4713
@<TRIPOS>BOND
     1    31    32    1
     2    25    32    1
     3    26    27   ar
     4    26    21    1
     5    28    29   ar
     6    30    25   ar
     7    21    23   am
     8     2     3   ar
     9     6     5    1
    10     6     7    1
    11     7     8    1
    12     8    11    1
    13    12    11    1
    14    12    13    1
    15    14    15    1
    16    16    17   ar
    17    18    19   ar
    18    20    15   ar
    19     9    11    1
    20     9    10    1
    21    10     6    1
    22    23     1    1
    23     5     4   ar
    24     5     1   ar
    25    25    26   ar
    26    27    28   ar
    27    29    30   ar
    28    21    22    2
    29     1     2   ar
    30     3     4   ar
    31    13    14    2
    32    15    16   ar
    33    17    18   ar
    34    19    20   ar
    35    23    24    1
@<TRIPOS>MOLECULE
MolPort-005-137-957 11949142 CHEMBL1879493 CSSS00159792005 PubChem-24793839 ZINC000011949142
 32 35 0 0 0
SMALL
GASTEIGER

@<TRIPOS>ATOM
      1 C          13.0762   39.4858    9.3907 C.ar    1  UNL1        0.1328
      2 C          13.1126   38.1474    9.0471 C.ar    1  UNL1        0.0565
      3 C          11.8633   37.6803    9.4403 C.ar    1  UNL1        0.1230
      4 N          11.1486   38.6902    9.9799 N.ar    1  UNL1       -0.1666
      5 N          11.8906   39.7824    9.9403 N.ar    1  UNL1       -0.2394
      6 C          11.4891   41.0877   10.4594 C.3     1  UNL1        0.1093
      7 C          10.0885   41.0249   11.0857 C.3     1  UNL1        0.0418
      8 C           8.9429   41.1300   10.0618 C.3     1  UNL1        0.0744
      9 C          10.2980   42.5484    8.7336 C.3     1  UNL1        0.0744
     10 C          11.6315   42.1813    9.3885 C.3     1  UNL1        0.0418
     11 N           9.4195   41.3842    8.7015 N.3     1  UNL1       -0.2688
     12 C           8.2570   41.7367    7.9025 C.3     1  UNL1        0.0989
     13 C           7.0993   42.0507    8.7896 C.2     1  UNL1       -0.0088
     14 C           6.1512   41.1454    9.0136 C.2     1  UNL1       -0.0032
     15 C           4.9885   41.4069    9.8724 C.ar    1  UNL1       -0.0003
     16 C           4.8302   40.7736   11.1158 C.ar    1  UNL1       -0.0000
     17 C           3.7118   41.0483   11.9083 C.ar    1  UNL1       -0.0000
     18 C           2.7467   41.9563   11.4637 C.ar    1  UNL1       -0.0000
     19 C           2.8999   42.5896   10.2271 C.ar    1  UNL1       -0.0000
     20 C           4.0184   42.3149    9.4342 C.ar    1  UNL1       -0.0000
     21 C          14.3798   41.1943    8.0127 C.2     1  UNL1        0.2535
     22 O          13.6420   41.0378    7.0024 O.2     1  UNL1       -0.2697
     23 N          14.1272   40.4439    9.2092 N.am    1  UNL1       -0.2659
     24 H          14.7285   40.6008    9.9728 H       1  UNL1        0.1566
     25 C          15.4279   43.4090    7.3327 C.ar    1  UNL1        0.1430
     26 C          15.5122   42.1507    7.9773 C.ar    1  UNL1        0.0876
     27 C          16.7126   41.7887    8.6092 C.ar    1  UNL1        0.0076
     28 C          17.8123   42.6477    8.6087 C.ar    1  UNL1        0.0003
     29 C          17.7281   43.8856    7.9742 C.ar    1  UNL1        0.0031
     30 C          16.5441   44.2635    7.3406 C.ar    1  UNL1        0.0371
     31 C          14.2077   44.2683    5.3524 C.3     1  UNL1        0.2525
     32 O          14.2442   43.7988    6.6934 O.3     1  UNL1       -0.4713
@<TRIPOS>BOND
     1    31    32    1
     2    25    32    1
     3    26    27   ar
     4    26    21    1
     5    28    29   ar
     6    30    25   ar
     7    21    23   am
     8     2     3   ar
     9     6     5    1
    10     6     7    1
    11     7     8    1
    12     8    11    1
    13    12    11    1
    14    12    13    1
    15    14    15    1
    16    16    17   ar
    17    18    19   ar
    18    20    15   ar
    19     9    11    1
    20     9    10    1
    21    10     6    1
    22    23     1    1
    23     5     4   ar
    24     5     1   ar
    25    25    26   ar
    26    27    28   ar
    27    29    30   ar
    28    21    22    2
    29     1     2   ar
    30     3     4   ar
    31    13    14    2
    32    15    16   ar
    33    17    18   ar
    34    19    20   ar
    35    23    24    1
@<TRIPOS>MOLECULE
MolPort-005-137-957 11949142 CHEMBL1879493 CSSS00159792005 PubChem-24793839 ZINC000011949142
 32 35 0 0 0
SMALL
GASTEIGER

@<TRIPOS>ATOM
      1 C          11.3179   40.3570    5.6354 C.ar    1  UNL1        0.1328
      2 C          11.1214   40.2173    4.2743 C.ar    1  UNL1        0.0565
      3 C           9.7581   39.9640    4.1704 C.ar    1  UNL1        0.1230
      4 N           9.2011   39.9573    5.3999 N.ar    1  UNL1       -0.1666
      5 N          10.1541   40.2021    6.2814 N.ar    1  UNL1       -0.2394
      6 C           9.9651   40.2468    7.7294 C.3     1  UNL1        0.1093
      7 C           8.5296   39.8562    8.1104 C.3     1  UNL1        0.0418
      8 C           7.5168   41.0098    7.9878 C.3     1  UNL1        0.0744
      9 C           9.2253   42.5363    8.5905 C.3     1  UNL1        0.0744
     10 C          10.4037   41.6020    8.3074 C.3     1  UNL1        0.0418
     11 N           8.1475   42.2839    7.6402 N.3     1  UNL1       -0.2688
     12 C           7.1459   43.3205    7.8312 C.3     1  UNL1        0.0989
     13 C           6.3047   43.0092    9.0233 C.2     1  UNL1       -0.0088
     14 C           5.2910   42.1530    8.9333 C.2     1  UNL1       -0.0032
     15 C           4.4289   41.8181   10.0745 C.ar    1  UNL1       -0.0003
     16 C           4.7168   40.7402   10.9275 C.ar    1  UNL1       -0.0000
     17 C           3.8752   40.4517   12.0058 C.ar    1  UNL1       -0.0000
     18 C           2.7429   41.2375   12.2379 C.ar    1  UNL1       -0.0000
     19 C           2.4522   42.3117   11.3921 C.ar    1  UNL1       -0.0000
     20 C           3.2938   42.6004   10.3134 C.ar    1  UNL1       -0.0000
     21 C          13.1576   41.9150    6.4751 C.2     1  UNL1        0.2535
     22 O          12.5777   42.9432    6.0325 O.2     1  UNL1       -0.2697
     23 N          12.5620   40.6219    6.2969 N.am    1  UNL1       -0.2659
     24 H          13.0505   39.8485    6.6608 H       1  UNL1        0.1566
     25 C          15.4595   42.9483    6.7908 C.ar    1  UNL1        0.1430
     26 C          14.4562   42.0283    7.1818 C.ar    1  UNL1        0.0876
     27 C          14.6945   41.1876    8.2808 C.ar    1  UNL1        0.0076
     28 C          15.8978   41.2489    8.9847 C.ar    1  UNL1        0.0003
     29 C          16.8843   42.1547    8.5991 C.ar    1  UNL1        0.0031
     30 C          16.6665   42.9984    7.5097 C.ar    1  UNL1        0.0371
     31 C          15.1949   45.2151    5.8210 C.3     1  UNL1        0.2525
     32 O          15.2517   43.8002    5.6987 O.3     1  UNL1       -0.4713
@<TRIPOS>BOND
     1    31    32    1
     2    25    32    1
     3    26    27   ar
     4    26    21    1
     5    28    29   ar
     6    30    25   ar
     7    21    23   am
     8     2     3   ar
     9     6     5    1
    10     6     7    1
    11     7     8    1
    12     8    11    1
    13    12    11    1
    14    12    13    1
    15    14    15    1
    16    16    17   ar
    17    18    19   ar
    18    20    15   ar
    19     9    11    1
    20     9    10    1
    21    10     6    1
    22    23     1    1
    23     5     4   ar
    24     5     1   ar
    25    25    26   ar
    26    27    28   ar
    27    29    30   ar
    28    21    22    2
    29     1     2   ar
    30     3     4   ar
    31    13    14    2
    32    15    16   ar
    33    17    18   ar
    34    19    20   ar
    35    23    24    1
@<TRIPOS>MOLECULE
MolPort-005-137-957 11949142 CHEMBL1879493 CSSS00159792005 PubChem-24793839 ZINC000011949142
 32 35 0 0 0
SMALL
GASTEIGER

@<TRIPOS>ATOM
      1 C           9.7809   41.3439   10.3317 C.ar    1  UNL1        0.1328
      2 C           9.9094   42.3949   11.2204 C.ar    1  UNL1        0.0565
      3 C           9.1146   43.3889   10.6599 C.ar    1  UNL1        0.1230
      4 N           8.5609   42.9376    9.5146 N.ar    1  UNL1       -0.1666
      5 N           8.9666   41.6945    9.3269 N.ar    1  UNL1       -0.2394
      6 C           8.6145   40.8622    8.1790 C.3     1  UNL1        0.1093
      7 C           9.6624   39.7627    7.9530 C.3     1  UNL1        0.0418
      8 C          10.9030   40.2354    7.1726 C.3     1  UNL1        0.0744
      9 C           9.5327   41.7420    5.9623 C.3     1  UNL1        0.0744
     10 C           8.3477   41.7184    6.9305 C.3     1  UNL1        0.0418
     11 N          10.7844   41.6159    6.7009 N.3     1  UNL1       -0.2688
     12 C          11.8704   41.8387    5.7601 C.3     1  UNL1        0.0989
     13 C          13.1759   41.8756    6.4812 C.2     1  UNL1       -0.0088
     14 C          13.9941   42.9158    6.3502 C.2     1  UNL1       -0.0032
     15 C          15.2924   42.9976    7.0323 C.ar    1  UNL1       -0.0003
     16 C          16.1939   44.0453    6.7831 C.ar    1  UNL1       -0.0000
     17 C          17.4203   44.0927    7.4525 C.ar    1  UNL1       -0.0000
     18 C          17.7524   43.0953    8.3735 C.ar    1  UNL1       -0.0000
     19 C          16.8585   42.0506    8.6253 C.ar    1  UNL1       -0.0000
     20 C          15.6318   42.0030    7.9559 C.ar    1  UNL1       -0.0000
     21 C          11.8217   39.8104   10.3584 C.2     1  UNL1        0.2535
     22 O          12.6243   40.7693   10.1976 O.2     1  UNL1       -0.2697
     23 N          10.4105   40.0596   10.4299 N.am    1  UNL1       -0.2659
     24 H           9.8229   39.2801   10.5577 H       1  UNL1        0.1566
     25 C          13.6053   38.1125   10.9920 C.ar    1  UNL1        0.1430
     26 C          12.3232   38.4199   10.4747 C.ar    1  UNL1        0.0876
     27 C          11.4898   37.3715   10.0535 C.ar    1  UNL1        0.0076
     28 C          11.9077   36.0428   10.1388 C.ar    1  UNL1        0.0003
     29 C          13.1694   35.7415   10.6481 C.ar    1  UNL1        0.0031
     30 C          14.0124   36.7692   11.0717 C.ar    1  UNL1        0.0371
     31 C          15.8180   39.2317   11.0120 C.3     1  UNL1        0.2525
     32 O          14.4599   39.1362   11.4202 O.3     1  UNL1       -0.4713
@<TRIPOS>BOND
     1    31    32    1
     2    25    32    1
     3    26    27   ar
     4    26    21    1
     5    28    29   ar
     6    30    25   ar
     7    21    23   am
     8     2     3   ar
     9     6     5    1
    10     6     7    1
    11     7     8    1
    12     8    11    1
    13    12    11    1
    14    12    13    1
    15    14    15    1
    16    16    17   ar
    17    18    19   ar
    18    20    15   ar
    19     9    11    1
    20     9    10    1
    21    10     6    1
    22    23     1    1
    23     5     4   ar
    24     5     1   ar
    25    25    26   ar
    26    27    28   ar
    27    29    30   ar
    28    21    22    2
    29     1     2   ar
    30     3     4   ar
    31    13    14    2
    32    15    16   ar
    33    17    18   ar
    34    19    20   ar
    35    23    24    1
@<TRIPOS>MOLECULE
MolPort-005-137-957 11949142 CHEMBL1879493 CSSS00159792005 PubChem-24793839 ZINC000011949142
 32 35 0 0 0
SMALL
GASTEIGER

@<TRIPOS>ATOM
      1 C          10.2619   41.5023    8.8335 C.ar    1  UNL1        0.1328
      2 C          10.0341   42.8628    8.9240 C.ar    1  UNL1        0.0565
      3 C          10.3577   43.1559   10.2442 C.ar    1  UNL1        0.1230
      4 N          10.7486   42.0302   10.8781 N.ar    1  UNL1       -0.1666
      5 N          10.6924   41.0336   10.0127 N.ar    1  UNL1       -0.2394
      6 C          11.0064   39.6398   10.3180 C.3     1  UNL1        0.1093
      7 C          11.9932   39.5409   11.4904 C.3     1  UNL1        0.0418
      8 C          13.4656   39.7365   11.0835 C.3     1  UNL1        0.0744
      9 C          12.9922   38.7285    8.9925 C.3     1  UNL1        0.0744
     10 C          11.4714   38.8851    9.0621 C.3     1  UNL1        0.0418
     11 N          13.6419   39.8650    9.6362 N.3     1  UNL1       -0.2688
     12 C          15.0676   39.7605    9.3704 C.3     1  UNL1        0.0989
     13 C          15.5391   40.9580    8.6160 C.2     1  UNL1       -0.0088
     14 C          14.6821   41.7077    7.9288 C.2     1  UNL1       -0.0032
     15 C          15.0962   42.8917    7.1644 C.ar    1  UNL1       -0.0003
     16 C          14.2009   43.5866    6.3350 C.ar    1  UNL1       -0.0000
     17 C          14.6290   44.7113    5.6236 C.ar    1  UNL1       -0.0000
     18 C          15.9520   45.1477    5.7369 C.ar    1  UNL1       -0.0000
     19 C          16.8467   44.4597    6.5614 C.ar    1  UNL1       -0.0000
     20 C          16.4188   43.3347    7.2730 C.ar    1  UNL1       -0.0000
     21 C          10.5978   40.9424    6.3656 C.2     1  UNL1        0.2535
     22 O          11.2940   41.9732    6.1603 O.2     1  UNL1       -0.2697
     23 N          10.0734   40.6792    7.6749 N.am    1  UNL1       -0.2659
     24 H           9.5369   39.8614    7.7876 H       1  UNL1        0.1566
     25 C           8.9981   39.7121    4.8186 C.ar    1  UNL1        0.1430
     26 C          10.3133   39.9938    5.2621 C.ar    1  UNL1        0.0876
     27 C          11.3945   39.3528    4.6365 C.ar    1  UNL1        0.0076
     28 C          11.1884   38.4501    3.5925 C.ar    1  UNL1        0.0003
     29 C           9.8937   38.1737    3.1570 C.ar    1  UNL1        0.0031
     30 C           8.8062   38.8004    3.7659 C.ar    1  UNL1        0.0371
     31 C           6.9559   39.6352    6.2232 C.3     1  UNL1        0.2525
     32 O           7.8988   40.3354    5.4226 O.3     1  UNL1       -0.4713
@<TRIPOS>BOND
     1    31    32    1
     2    25    32    1
     3    26    27   ar
     4    26    21    1
     5    28    29   ar
     6    30    25   ar
     7    21    23   am
     8     2     3   ar
     9     6     5    1
    10     6     7    1
    11     7     8    1
    12     8    11    1
    13    12    11    1
    14    12    13    1
    15    14    15    1
    16    16    17   ar
    17    18    19   ar
    18    20    15   ar
    19     9    11    1
    20     9    10    1
    21    10     6    1
    22    23     1    1
    23     5     4   ar
    24     5     1   ar
    25    25    26   ar
    26    27    28   ar
    27    29    30   ar
    28    21    22    2
    29     1     2   ar
    30     3     4   ar
    31    13    14    2
    32    15    16   ar
    33    17    18   ar
    34    19    20   ar
    35    23    24    1
