@<TRIPOS>MOLECULE
MolPort-029-888-758 CSSS00160083815 MCULE-7451351117 PubChem-72842500
 31 33 0 0 0
SMALL
GASTEIGER

@<TRIPOS>ATOM
      1 N           9.1341   41.1150   10.9557 N.am    1  UNL1       -0.2873
      2 N          11.4506   40.3053   10.7303 N.am    1  UNL1       -0.2682
      3 C          10.4241   41.2323   10.3563 C.2     1  UNL1        0.3045
      4 O          10.6473   42.1397    9.5095 O.2     1  UNL1       -0.2525
      5 H           8.9785   40.4037   11.6183 H       1  UNL1        0.1510
      6 H          11.1997   39.6086   11.3791 H       1  UNL1        0.1564
      7 C          12.8050   40.2855   10.2592 C.ar    1  UNL1        0.0546
      8 C          13.1212   40.9892    9.0919 C.ar    1  UNL1        0.0516
      9 C          14.4263   40.9908    8.5886 C.ar    1  UNL1        0.1396
     10 C          15.4277   40.2784    9.2670 C.ar    1  UNL1        0.0370
     11 C          15.1213   39.5732   10.4328 C.ar    1  UNL1        0.0044
     12 C          13.8143   39.5760   10.9270 C.ar    1  UNL1        0.0149
     13 O          14.6988   41.7077    7.4183 O.3     1  UNL1       -0.4791
     14 C          14.5792   43.1235    7.3245 C.3     1  UNL1        0.1659
     15 C          15.9633   43.7567    7.2954 C.3     1  UNL1        0.0435
     16 C          16.0776   44.5094    5.9853 C.3     1  UNL1        0.0038
     17 C          15.0200   43.9207    5.0834 C.3     1  UNL1        0.0038
     18 C          13.9107   43.4845    6.0120 C.3     1  UNL1        0.0435
     19 C           8.0424   42.0146   10.6171 C.3     1  UNL1        0.1082
     20 C           6.7809   41.5993   11.3561 C.3     1  UNL1        0.0937
     21 N           5.7863   41.1014   10.4182 N.3     1  UNL1       -0.2708
     22 C           4.3354   42.9598    9.5263 C.3     1  UNL1        0.0922
     23 C           3.0932   42.0643    9.5660 C.3     1  UNL1        0.0119
     24 C           3.3458   40.7369   10.2869 C.3     1  UNL1        0.0179
     25 C           4.5683   40.8340   11.1953 C.3     1  UNL1        0.0722
     26 C           5.6141   42.1280    9.3701 C.3     1  UNL1        0.0812
     27 N           5.1612   43.9888    7.3628 N.am    1  UNL1       -0.3288
     28 C           4.2245   43.9721    8.4363 C.2     1  UNL1        0.2203
     29 O           3.3003   44.8252    8.4712 O.2     1  UNL1       -0.2753
     30 H           5.8859   43.3231    7.3316 H       1  UNL1        0.1449
     31 H           5.0838   44.6659    6.6524 H       1  UNL1        0.1449
@<TRIPOS>BOND
     1    27    28   am
     2     1     3   am
     3     2     7    1
     4    22    28    1
     5    22    23    1
     6    23    24    1
     7    24    25    1
     8    25    21    1
     9    20    21    1
    10    20    19    1
    11    19     1    1
    12     3     2   am
    13     8     9   ar
    14     9    13    1
    15    14    13    1
    16    14    15    1
    17    15    16    1
    18    16    17    1
    19    17    18    1
    20    18    14    1
    21    10    11   ar
    22    12     7   ar
    23    26    21    1
    24    26    22    1
    25    28    29    2
    26     3     4    2
    27     7     8   ar
    28     9    10   ar
    29    11    12   ar
    30    27    30    1
    31    27    31    1
    32     1     5    1
    33     2     6    1
@<TRIPOS>MOLECULE
MolPort-029-888-758 CSSS00160083815 MCULE-7451351117 PubChem-72842500
 31 33 0 0 0
SMALL
GASTEIGER

@<TRIPOS>ATOM
      1 N          11.5527   42.3054    6.1819 N.am    1  UNL1       -0.2873
      2 N          13.9520   42.8544    6.3014 N.am    1  UNL1       -0.2682
      3 C          12.7693   42.3422    6.9273 C.2     1  UNL1        0.3045
      4 O          12.7930   41.9304    8.1190 O.2     1  UNL1       -0.2525
      5 H          11.5531   42.6266    5.2513 H       1  UNL1        0.1510
      6 H          13.8554   43.1804    5.3775 H       1  UNL1        0.1564
      7 C          15.2618   42.9422    6.8791 C.ar    1  UNL1        0.0546
      8 C          15.5817   42.1012    7.9506 C.ar    1  UNL1        0.0516
      9 C          16.8430   42.1577    8.5527 C.ar    1  UNL1        0.1396
     10 C          17.7964   43.0688    8.0717 C.ar    1  UNL1        0.0370
     11 C          17.4859   43.9121    7.0027 C.ar    1  UNL1        0.0044
     12 C          16.2227   43.8496    6.4087 C.ar    1  UNL1        0.0149
     13 O          17.1211   41.2987    9.6217 O.3     1  UNL1       -0.4791
     14 C          16.8577   39.8997    9.5877 C.3     1  UNL1        0.1659
     15 C          17.4655   39.2311   10.8129 C.3     1  UNL1        0.0435
     16 C          16.3258   38.5874   11.5762 C.3     1  UNL1        0.0038
     17 C          15.0726   39.2799   11.0982 C.3     1  UNL1        0.0038
     18 C          15.3609   39.6692    9.6669 C.3     1  UNL1        0.0435
     19 C          10.3122   41.8076    6.7557 C.3     1  UNL1        0.1082
     20 C          10.3389   41.9692    8.2666 C.3     1  UNL1        0.0937
     21 N           9.1496   41.3769    8.8595 N.3     1  UNL1       -0.2708
     22 C           7.3423   41.0009    7.1430 C.3     1  UNL1        0.0922
     23 C           6.2535   41.4095    8.1400 C.3     1  UNL1        0.0119
     24 C           6.8277   41.9994    9.4315 C.3     1  UNL1        0.0179
     25 C           8.2578   42.4879    9.2189 C.3     1  UNL1        0.0722
     26 C           8.5763   40.4470    7.8653 C.3     1  UNL1        0.0812
     27 N           5.4179   39.7483    6.0711 N.am    1  UNL1       -0.3288
     28 C           6.8153   40.0120    6.1583 C.2     1  UNL1        0.2203
     29 O           7.6144   39.3983    5.4047 O.2     1  UNL1       -0.2753
     30 H           4.7891   40.2262    6.6589 H       1  UNL1        0.1449
     31 H           5.0810   39.0881    5.4231 H       1  UNL1        0.1449
@<TRIPOS>BOND
     1    27    28   am
     2     1     3   am
     3     2     7    1
     4    22    28    1
     5    22    23    1
     6    23    24    1
     7    24    25    1
     8    25    21    1
     9    20    21    1
    10    20    19    1
    11    19     1    1
    12     3     2   am
    13     8     9   ar
    14     9    13    1
    15    14    13    1
    16    14    15    1
    17    15    16    1
    18    16    17    1
    19    17    18    1
    20    18    14    1
    21    10    11   ar
    22    12     7   ar
    23    26    21    1
    24    26    22    1
    25    28    29    2
    26     3     4    2
    27     7     8   ar
    28     9    10   ar
    29    11    12   ar
    30    27    30    1
    31    27    31    1
    32     1     5    1
    33     2     6    1
@<TRIPOS>MOLECULE
MolPort-029-888-758 CSSS00160083815 MCULE-7451351117 PubChem-72842500
 31 33 0 0 0
SMALL
GASTEIGER

@<TRIPOS>ATOM
      1 N          11.6417   42.3665    5.8547 N.am    1  UNL1       -0.2873
      2 N          13.8719   43.1566    6.5435 N.am    1  UNL1       -0.2682
      3 C          12.8707   42.1316    6.5414 C.2     1  UNL1        0.3045
      4 O          13.0628   41.0366    7.1365 O.2     1  UNL1       -0.2525
      5 H          11.5102   43.2252    5.3915 H       1  UNL1        0.1510
      6 H          13.6453   43.9945    6.0791 H       1  UNL1        0.1564
      7 C          15.1695   43.0904    7.1509 C.ar    1  UNL1        0.0546
      8 C          15.5382   41.9198    7.8230 C.ar    1  UNL1        0.0516
      9 C          16.7893   41.8125    8.4394 C.ar    1  UNL1        0.1396
     10 C          17.6828   42.8935    8.3786 C.ar    1  UNL1        0.0370
     11 C          17.3232   44.0657    7.7100 C.ar    1  UNL1        0.0044
     12 C          16.0706   44.1642    7.0988 C.ar    1  UNL1        0.0149
     13 O          17.1175   40.6240    9.1007 O.3     1  UNL1       -0.4791
     14 C          16.2890   40.0292   10.0944 C.3     1  UNL1        0.1659
     15 C          15.3728   38.9974    9.4512 C.3     1  UNL1        0.0435
     16 C          15.6872   37.6633   10.0973 C.3     1  UNL1        0.0038
     17 C          17.0588   37.8194   10.7079 C.3     1  UNL1        0.0038
     18 C          17.1560   39.2789   11.0869 C.3     1  UNL1        0.0435
     19 C          10.5776   41.3754    5.8187 C.3     1  UNL1        0.1082
     20 C           9.7598   41.4468    7.0977 C.3     1  UNL1        0.0937
     21 N           8.3416   41.5392    6.7865 N.3     1  UNL1       -0.2708
     22 C           7.1175   42.9920    8.4433 C.3     1  UNL1        0.0922
     23 C           5.9018   42.0603    8.4242 C.3     1  UNL1        0.0119
     24 C           6.1706   40.7555    7.6688 C.3     1  UNL1        0.0179
     25 C           7.6690   40.4870    7.5606 C.3     1  UNL1        0.0722
     26 C           7.9021   42.9073    7.1285 C.3     1  UNL1        0.0812
     27 N           7.5951   45.3003    9.3736 N.am    1  UNL1       -0.3288
     28 C           6.7040   44.3974    8.7249 C.2     1  UNL1        0.2203
     29 O           5.5536   44.7854    8.3946 O.2     1  UNL1       -0.2753
     30 H           8.4962   45.0008    9.6337 H       1  UNL1        0.1449
     31 H           7.3098   46.2235    9.5618 H       1  UNL1        0.1449
@<TRIPOS>BOND
     1    27    28   am
     2     1     3   am
     3     2     7    1
     4    22    28    1
     5    22    23    1
     6    23    24    1
     7    24    25    1
     8    25    21    1
     9    20    21    1
    10    20    19    1
    11    19     1    1
    12     3     2   am
    13     8     9   ar
    14     9    13    1
    15    14    13    1
    16    14    15    1
    17    15    16    1
    18    16    17    1
    19    17    18    1
    20    18    14    1
    21    10    11   ar
    22    12     7   ar
    23    26    21    1
    24    26    22    1
    25    28    29    2
    26     3     4    2
    27     7     8   ar
    28     9    10   ar
    29    11    12   ar
    30    27    30    1
    31    27    31    1
    32     1     5    1
    33     2     6    1
@<TRIPOS>MOLECULE
MolPort-029-888-758 CSSS00160083815 MCULE-7451351117 PubChem-72842500
 31 33 0 0 0
SMALL
GASTEIGER

@<TRIPOS>ATOM
      1 N          10.4175   40.1217   10.1448 N.am    1  UNL1       -0.2873
      2 N           8.4668   40.9988    8.9208 N.am    1  UNL1       -0.2682
      3 C           9.5962   41.2280    9.7721 C.2     1  UNL1        0.3045
      4 O           9.8668   42.3857   10.1924 O.2     1  UNL1       -0.2525
      5 H          10.1945   39.2254    9.8039 H       1  UNL1        0.1510
      6 H           8.3015   40.0669    8.6497 H       1  UNL1        0.1564
      7 C           7.5516   41.9840    8.4220 C.ar    1  UNL1        0.0546
      8 C           6.4460   42.3324    9.2056 C.ar    1  UNL1        0.0516
      9 C           5.5210   43.2807    8.7565 C.ar    1  UNL1        0.1396
     10 C           5.7093   43.8888    7.5054 C.ar    1  UNL1        0.0370
     11 C           6.8099   43.5473    6.7165 C.ar    1  UNL1        0.0044
     12 C           7.7277   42.5975    7.1728 C.ar    1  UNL1        0.0149
     13 O           4.4296   43.5997    9.5719 O.3     1  UNL1       -0.4791
     14 C           3.3504   42.7037    9.8172 C.3     1  UNL1        0.1659
     15 C           3.6697   41.3380    9.2251 C.3     1  UNL1        0.0435
     16 C           3.6643   40.3471   10.3714 C.3     1  UNL1        0.0038
     17 C           3.8414   41.1713   11.6235 C.3     1  UNL1        0.0038
     18 C           3.1962   42.5017   11.3123 C.3     1  UNL1        0.0435
     19 C          11.5739   40.2785   11.0130 C.3     1  UNL1        0.1082
     20 C          12.8490   40.0103   10.2307 C.3     1  UNL1        0.0937
     21 N          13.4229   38.7319   10.6222 N.3     1  UNL1       -0.2708
     22 C          15.8059   38.5006    9.8334 C.3     1  UNL1        0.0922
     23 C          15.5962   37.0195    9.5039 C.3     1  UNL1        0.0119
     24 C          14.1271   36.5968    9.5968 C.3     1  UNL1        0.0179
     25 C          13.2042   37.8085    9.5005 C.3     1  UNL1        0.0722
     26 C          14.8474   38.9646   10.9367 C.3     1  UNL1        0.0812
     27 N          17.5341   39.6661   11.2743 N.am    1  UNL1       -0.3288
     28 C          17.2234   38.7628   10.2171 C.2     1  UNL1        0.2203
     29 O          18.1531   38.1878    9.5941 O.2     1  UNL1       -0.2753
     30 H          16.8098   40.1181   11.7644 H       1  UNL1        0.1449
     31 H          18.4732   39.8381   11.5148 H       1  UNL1        0.1449
@<TRIPOS>BOND
     1    27    28   am
     2     1     3   am
     3     2     7    1
     4    22    28    1
     5    22    23    1
     6    23    24    1
     7    24    25    1
     8    25    21    1
     9    20    21    1
    10    20    19    1
    11    19     1    1
    12     3     2   am
    13     8     9   ar
    14     9    13    1
    15    14    13    1
    16    14    15    1
    17    15    16    1
    18    16    17    1
    19    17    18    1
    20    18    14    1
    21    10    11   ar
    22    12     7   ar
    23    26    21    1
    24    26    22    1
    25    28    29    2
    26     3     4    2
    27     7     8   ar
    28     9    10   ar
    29    11    12   ar
    30    27    30    1
    31    27    31    1
    32     1     5    1
    33     2     6    1
@<TRIPOS>MOLECULE
MolPort-029-888-758 CSSS00160083815 MCULE-7451351117 PubChem-72842500
 31 33 0 0 0
SMALL
GASTEIGER

@<TRIPOS>ATOM
      1 N          11.5945   42.3855    5.8290 N.am    1  UNL1       -0.2873
      2 N          13.8928   43.1530    6.2772 N.am    1  UNL1       -0.2682
      3 C          12.8851   42.1405    6.3871 C.2     1  UNL1        0.3045
      4 O          13.1250   41.0475    6.9684 O.2     1  UNL1       -0.2525
      5 H          11.4257   43.2424    5.3746 H       1  UNL1        0.1510
      6 H          13.6291   43.9903    5.8316 H       1  UNL1        0.1564
      7 C          15.2453   43.0752    6.7480 C.ar    1  UNL1        0.0546
      8 C          15.5215   42.2903    7.8729 C.ar    1  UNL1        0.0516
      9 C          16.8235   42.1918    8.3746 C.ar    1  UNL1        0.1396
     10 C          17.8623   42.8887    7.7376 C.ar    1  UNL1        0.0370
     11 C          17.5960   43.6746    6.6143 C.ar    1  UNL1        0.0044
     12 C          16.2918   43.7682    6.1215 C.ar    1  UNL1        0.0149
     13 O          17.0555   41.3959    9.5017 O.3     1  UNL1       -0.4791
     14 C          16.7982   39.9958    9.5349 C.3     1  UNL1        0.1659
     15 C          17.2176   39.4266   10.8831 C.3     1  UNL1        0.0435
     16 C          15.9769   38.8305   11.5165 C.3     1  UNL1        0.0038
     17 C          14.8089   39.4729   10.8083 C.3     1  UNL1        0.0038
     18 C          15.3058   39.7570    9.4099 C.3     1  UNL1        0.0435
     19 C          10.5210   41.4074    5.9113 C.3     1  UNL1        0.1082
     20 C           9.5485   41.7972    7.0124 C.3     1  UNL1        0.0937
     21 N           9.4993   40.7618    8.0333 N.3     1  UNL1       -0.2708
     22 C           8.9877   41.7206   10.3077 C.3     1  UNL1        0.0922
     23 C           9.9632   40.7506   10.9813 C.3     1  UNL1        0.0119
     24 C          10.8125   39.9724    9.9720 C.3     1  UNL1        0.0179
     25 C          10.8432   40.6839    8.6222 C.3     1  UNL1        0.0722
     26 C           8.4450   41.1402    8.9962 C.3     1  UNL1        0.0812
     27 N           8.1386   42.7022   12.4842 N.am    1  UNL1       -0.3288
     28 C           7.8722   42.0775   11.2317 C.2     1  UNL1        0.2203
     29 O           6.6858   41.8151   10.9051 O.2     1  UNL1       -0.2753
     30 H           9.0654   42.9093   12.7437 H       1  UNL1        0.1449
     31 H           7.3959   42.9268   13.0901 H       1  UNL1        0.1449
@<TRIPOS>BOND
     1    27    28   am
     2     1     3   am
     3     2     7    1
     4    22    28    1
     5    22    23    1
     6    23    24    1
     7    24    25    1
     8    25    21    1
     9    20    21    1
    10    20    19    1
    11    19     1    1
    12     3     2   am
    13     8     9   ar
    14     9    13    1
    15    14    13    1
    16    14    15    1
    17    15    16    1
    18    16    17    1
    19    17    18    1
    20    18    14    1
    21    10    11   ar
    22    12     7   ar
    23    26    21    1
    24    26    22    1
    25    28    29    2
    26     3     4    2
    27     7     8   ar
    28     9    10   ar
    29    11    12   ar
    30    27    30    1
    31    27    31    1
    32     1     5    1
    33     2     6    1
@<TRIPOS>MOLECULE
MolPort-029-888-758 CSSS00160083815 MCULE-7451351117 PubChem-72842500
 31 33 0 0 0
SMALL
GASTEIGER

@<TRIPOS>ATOM
      1 N           8.6837   42.0576    6.8666 N.am    1  UNL1       -0.2873
      2 N          11.0501   42.4977    7.3946 N.am    1  UNL1       -0.2682
      3 C          10.0410   41.6166    6.8865 C.2     1  UNL1        0.3045
      4 O          10.3380   40.4664    6.4635 O.2     1  UNL1       -0.2525
      5 H           8.4701   42.9603    7.1964 H       1  UNL1        0.1510
      6 H          10.7438   43.3712    7.7299 H       1  UNL1        0.1564
      7 C          12.4594   42.2413    7.4662 C.ar    1  UNL1        0.0546
      8 C          13.3130   42.9298    6.5973 C.ar    1  UNL1        0.0516
      9 C          14.6934   42.7056    6.6235 C.ar    1  UNL1        0.1396
     10 C          15.2243   41.7795    7.5352 C.ar    1  UNL1        0.0370
     11 C          14.3798   41.0876    8.4062 C.ar    1  UNL1        0.0044
     12 C          13.0020   41.3171    8.3714 C.ar    1  UNL1        0.0149
     13 O          15.5108   43.4156    5.7372 O.3     1  UNL1       -0.4791
     14 C          16.5631   44.2748    6.1637 C.3     1  UNL1        0.1659
     15 C          16.5533   44.3870    7.6819 C.3     1  UNL1        0.0435
     16 C          17.8915   43.8721    8.1719 C.3     1  UNL1        0.0038
     17 C          18.4424   43.0322    7.0450 C.3     1  UNL1        0.0038
     18 C          17.8968   43.6608    5.7840 C.3     1  UNL1        0.0435
     19 C           7.6064   41.2135    6.3738 C.3     1  UNL1        0.1082
     20 C           6.8612   40.5898    7.5424 C.3     1  UNL1        0.0937
     21 N           6.8244   41.5109    8.6680 N.3     1  UNL1       -0.2708
     22 C           5.6810   43.6745    8.0635 C.3     1  UNL1        0.0922
     23 C           6.6815   44.4831    8.8951 C.3     1  UNL1        0.0119
     24 C           7.8577   43.6363    9.3898 C.3     1  UNL1        0.0179
     25 C           8.0097   42.3711    8.5500 C.3     1  UNL1        0.0722
     26 C           5.5438   42.2438    8.5978 C.3     1  UNL1        0.0812
     27 N           3.1706   43.6623    8.4086 N.am    1  UNL1       -0.3288
     28 C           4.3540   44.3549    8.0218 C.2     1  UNL1        0.2203
     29 O           4.2791   45.5488    7.6318 O.2     1  UNL1       -0.2753
     30 H           3.2247   42.7280    8.7144 H       1  UNL1        0.1449
     31 H           2.2987   44.1179    8.3702 H       1  UNL1        0.1449
@<TRIPOS>BOND
     1    27    28   am
     2     1     3   am
     3     2     7    1
     4    22    28    1
     5    22    23    1
     6    23    24    1
     7    24    25    1
     8    25    21    1
     9    20    21    1
    10    20    19    1
    11    19     1    1
    12     3     2   am
    13     8     9   ar
    14     9    13    1
    15    14    13    1
    16    14    15    1
    17    15    16    1
    18    16    17    1
    19    17    18    1
    20    18    14    1
    21    10    11   ar
    22    12     7   ar
    23    26    21    1
    24    26    22    1
    25    28    29    2
    26     3     4    2
    27     7     8   ar
    28     9    10   ar
    29    11    12   ar
    30    27    30    1
    31    27    31    1
    32     1     5    1
    33     2     6    1
@<TRIPOS>MOLECULE
MolPort-029-888-758 CSSS00160083815 MCULE-7451351117 PubChem-72842500
 31 33 0 0 0
SMALL
GASTEIGER

@<TRIPOS>ATOM
      1 N          10.2606   40.0167    8.9447 N.am    1  UNL1       -0.2873
      2 N           8.1445   41.0546    8.2251 N.am    1  UNL1       -0.2682
      3 C           9.4342   41.1755    8.8375 C.2     1  UNL1        0.3045
      4 O           9.8404   42.2843    9.2799 O.2     1  UNL1       -0.2525
      5 H           9.9298   39.1600    8.5899 H       1  UNL1        0.1510
      6 H           7.8828   40.1546    7.9237 H       1  UNL1        0.1564
      7 C           7.1947   42.1064    8.0051 C.ar    1  UNL1        0.0546
      8 C           6.2022   42.3278    8.9662 C.ar    1  UNL1        0.0516
      9 C           5.2480   43.3355    8.7905 C.ar    1  UNL1        0.1396
     10 C           5.2919   44.1327    7.6359 C.ar    1  UNL1        0.0370
     11 C           6.2789   43.9188    6.6713 C.ar    1  UNL1        0.0044
     12 C           7.2267   42.9087    6.8548 C.ar    1  UNL1        0.0149
     13 O           4.2730   43.5228    9.7764 O.3     1  UNL1       -0.4791
     14 C           3.2293   42.5878   10.0296 C.3     1  UNL1        0.1659
     15 C           3.5285   41.2762    9.3171 C.3     1  UNL1        0.0435
     16 C           3.6217   40.2047   10.3843 C.3     1  UNL1        0.0038
     17 C           3.8740   40.9394   11.6786 C.3     1  UNL1        0.0038
     18 C           3.1859   42.2743   11.5127 C.3     1  UNL1        0.0435
     19 C          11.5767   40.0632    9.5624 C.3     1  UNL1        0.1082
     20 C          12.6368   39.6514    8.5542 C.3     1  UNL1        0.0937
     21 N          13.7463   38.9937    9.2274 N.3     1  UNL1       -0.2708
     22 C          12.9860   36.9559   10.5015 C.3     1  UNL1        0.0922
     23 C          13.9530   37.2623   11.6493 C.3     1  UNL1        0.0119
     24 C          14.6103   38.6390   11.5151 C.3     1  UNL1        0.0179
     25 C          13.7999   39.5421   10.5894 C.3     1  UNL1        0.0722
     26 C          13.4940   37.5391    9.1774 C.3     1  UNL1        0.0812
     27 N          11.7753   34.8373   11.1852 N.am    1  UNL1       -0.3288
     28 C          12.7552   35.4870   10.3805 C.2     1  UNL1        0.2203
     29 O          13.4399   34.8147    9.5666 O.2     1  UNL1       -0.2753
     30 H          11.2373   35.3595   11.8233 H       1  UNL1        0.1449
     31 H          11.6360   33.8662   11.1031 H       1  UNL1        0.1449
@<TRIPOS>BOND
     1    27    28   am
     2     1     3   am
     3     2     7    1
     4    22    28    1
     5    22    23    1
     6    23    24    1
     7    24    25    1
     8    25    21    1
     9    20    21    1
    10    20    19    1
    11    19     1    1
    12     3     2   am
    13     8     9   ar
    14     9    13    1
    15    14    13    1
    16    14    15    1
    17    15    16    1
    18    16    17    1
    19    17    18    1
    20    18    14    1
    21    10    11   ar
    22    12     7   ar
    23    26    21    1
    24    26    22    1
    25    28    29    2
    26     3     4    2
    27     7     8   ar
    28     9    10   ar
    29    11    12   ar
    30    27    30    1
    31    27    31    1
    32     1     5    1
    33     2     6    1
@<TRIPOS>MOLECULE
MolPort-029-888-758 CSSS00160083815 MCULE-7451351117 PubChem-72842500
 31 33 0 0 0
SMALL
GASTEIGER

@<TRIPOS>ATOM
      1 N          10.1793   41.2510    7.5077 N.am    1  UNL1       -0.2873
      2 N           8.1823   42.5047    8.2238 N.am    1  UNL1       -0.2682
      3 C           8.9664   41.9253    7.1739 C.2     1  UNL1        0.3045
      4 O           8.5995   42.0071    5.9702 O.2     1  UNL1       -0.2525
      5 H          10.4484   41.1925    8.4529 H       1  UNL1        0.1510
      6 H           8.5406   42.4235    9.1372 H       1  UNL1        0.1564
      7 C           6.9305   43.1906    8.0843 C.ar    1  UNL1        0.0546
      8 C           5.9271   42.9576    9.0313 C.ar    1  UNL1        0.0516
      9 C           4.6865   43.5959    8.9312 C.ar    1  UNL1        0.1396
     10 C           4.4506   44.4812    7.8677 C.ar    1  UNL1        0.0370
     11 C           5.4462   44.7198    6.9178 C.ar    1  UNL1        0.0044
     12 C           6.6817   44.0762    7.0252 C.ar    1  UNL1        0.0149
     13 O           3.7113   43.3342    9.8998 O.3     1  UNL1       -0.4791
     14 C           3.0275   42.0894   10.0026 C.3     1  UNL1        0.1659
     15 C           4.0142   40.9435    9.8268 C.3     1  UNL1        0.0435
     16 C           3.9748   40.1267   11.1023 C.3     1  UNL1        0.0038
     17 C           3.3849   41.0375   12.1516 C.3     1  UNL1        0.0038
     18 C           2.4466   41.9500   11.3965 C.3     1  UNL1        0.0435
     19 C          11.0297   40.6476    6.4935 C.3     1  UNL1        0.1082
     20 C          12.2353   41.5358    6.2332 C.3     1  UNL1        0.0937
     21 N          12.9339   41.8174    7.4779 N.3     1  UNL1       -0.2708
     22 C          15.2591   42.6974    7.0618 C.3     1  UNL1        0.0922
     23 C          15.8154   41.9059    8.2495 C.3     1  UNL1        0.0119
     24 C          14.7975   40.9198    8.8298 C.3     1  UNL1        0.0179
     25 C          13.6997   40.6098    7.8160 C.3     1  UNL1        0.0722
     26 C          13.7710   43.0137    7.2541 C.3     1  UNL1        0.0812
     27 N          16.0500   44.5877    5.5710 N.am    1  UNL1       -0.3288
     28 C          16.0434   43.9475    6.8438 C.2     1  UNL1        0.2203
     29 O          16.7129   44.4351    7.7910 O.2     1  UNL1       -0.2753
     30 H          15.5276   44.2097    4.8271 H       1  UNL1        0.1449
     31 H          16.5770   45.4082    5.4353 H       1  UNL1        0.1449
@<TRIPOS>BOND
     1    27    28   am
     2     1     3   am
     3     2     7    1
     4    22    28    1
     5    22    23    1
     6    23    24    1
     7    24    25    1
     8    25    21    1
     9    20    21    1
    10    20    19    1
    11    19     1    1
    12     3     2   am
    13     8     9   ar
    14     9    13    1
    15    14    13    1
    16    14    15    1
    17    15    16    1
    18    16    17    1
    19    17    18    1
    20    18    14    1
    21    10    11   ar
    22    12     7   ar
    23    26    21    1
    24    26    22    1
    25    28    29    2
    26     3     4    2
    27     7     8   ar
    28     9    10   ar
    29    11    12   ar
    30    27    30    1
    31    27    31    1
    32     1     5    1
    33     2     6    1
@<TRIPOS>MOLECULE
MolPort-029-888-758 CSSS00160083815 MCULE-7451351117 PubChem-72842500
 31 33 0 0 0
SMALL
GASTEIGER

@<TRIPOS>ATOM
      1 N          10.6243   39.8863   10.2576 N.am    1  UNL1       -0.2873
      2 N          12.9813   39.2388   10.5703 N.am    1  UNL1       -0.2682
      3 C          12.0115   40.1979   10.1316 C.2     1  UNL1        0.3045
      4 O          12.3689   41.3020    9.6383 O.2     1  UNL1       -0.2525
      5 H          10.3629   39.0217   10.6492 H       1  UNL1        0.1510
      6 H          12.6317   38.3888   10.9233 H       1  UNL1        0.1564
      7 C          14.4077   39.3865   10.5494 C.ar    1  UNL1        0.0546
      8 C          14.9821   40.2315    9.5935 C.ar    1  UNL1        0.0516
      9 C          16.3693   40.3994    9.5281 C.ar    1  UNL1        0.1396
     10 C          17.1905   39.7118   10.4354 C.ar    1  UNL1        0.0370
     11 C          16.6259   38.8663   11.3929 C.ar    1  UNL1        0.0044
     12 C          15.2393   38.7035   11.4494 C.ar    1  UNL1        0.0149
     13 O          16.9019   41.2540    8.5566 O.3     1  UNL1       -0.4791
     14 C          16.6448   42.6541    8.5231 C.3     1  UNL1        0.1659
     15 C          17.9437   43.4108    8.2825 C.3     1  UNL1        0.0435
     16 C          17.7706   44.1872    6.9929 C.3     1  UNL1        0.0038
     17 C          16.6325   43.5162    6.2628 C.3     1  UNL1        0.0038
     18 C          15.7369   42.9694    7.3500 C.3     1  UNL1        0.0435
     19 C           9.5852   40.8076    9.8249 C.3     1  UNL1        0.1082
     20 C           8.9469   41.4729   11.0332 C.3     1  UNL1        0.0937
     21 N           7.9762   42.4695   10.6075 N.3     1  UNL1       -0.2708
     22 C           5.9376   41.4030    9.5773 C.3     1  UNL1        0.0922
     23 C           5.8422   42.5088    8.5216 C.3     1  UNL1        0.0119
     24 C           7.0642   43.4319    8.5223 C.3     1  UNL1        0.0179
     25 C           8.2568   42.7571    9.1942 C.3     1  UNL1        0.0722
     26 C           6.6313   41.9078   10.8483 C.3     1  UNL1        0.0812
     27 N           3.5227   40.9581    8.9514 N.am    1  UNL1       -0.3288
     28 C           4.5872   40.8531    9.8926 C.2     1  UNL1        0.2203
     29 O           4.3849   40.3002   11.0045 O.2     1  UNL1       -0.2753
     30 H           3.6767   41.3900    8.0802 H       1  UNL1        0.1449
     31 H           2.6332   40.5987    9.1723 H       1  UNL1        0.1449
@<TRIPOS>BOND
     1    27    28   am
     2     1     3   am
     3     2     7    1
     4    22    28    1
     5    22    23    1
     6    23    24    1
     7    24    25    1
     8    25    21    1
     9    20    21    1
    10    20    19    1
    11    19     1    1
    12     3     2   am
    13     8     9   ar
    14     9    13    1
    15    14    13    1
    16    14    15    1
    17    15    16    1
    18    16    17    1
    19    17    18    1
    20    18    14    1
    21    10    11   ar
    22    12     7   ar
    23    26    21    1
    24    26    22    1
    25    28    29    2
    26     3     4    2
    27     7     8   ar
    28     9    10   ar
    29    11    12   ar
    30    27    30    1
    31    27    31    1
    32     1     5    1
    33     2     6    1
@<TRIPOS>MOLECULE
MolPort-029-888-758 CSSS00160083815 MCULE-7451351117 PubChem-72842500
 31 33 0 0 0
SMALL
GASTEIGER

@<TRIPOS>ATOM
      1 N          11.7646   40.0750   10.7869 N.am    1  UNL1       -0.2873
      2 N           9.5903   40.7223    9.8246 N.am    1  UNL1       -0.2682
      3 C          11.0190   40.6750    9.7280 C.2     1  UNL1        0.3045
      4 O          11.6174   41.1558    8.7275 O.2     1  UNL1       -0.2525
      5 H          11.2811   39.7004   11.5584 H       1  UNL1        0.1510
      6 H           9.1917   40.3493   10.6439 H       1  UNL1        0.1564
      7 C           8.6796   41.2556    8.8534 C.ar    1  UNL1        0.0546
      8 C           7.3399   41.4348    9.2153 C.ar    1  UNL1        0.0516
      9 C           6.4130   41.9425    8.2989 C.ar    1  UNL1        0.1396
     10 C           6.8367   42.2767    7.0031 C.ar    1  UNL1        0.0370
     11 C           8.1719   42.1012    6.6331 C.ar    1  UNL1        0.0044
     12 C           9.0902   41.5918    7.5548 C.ar    1  UNL1        0.0149
     13 O           5.0832   42.1057    8.7023 O.3     1  UNL1       -0.4791
     14 C           4.3483   41.1008    9.3935 C.3     1  UNL1        0.1659
     15 C           4.8379   41.0017   10.8316 C.3     1  UNL1        0.0435
     16 C           3.6536   41.3126   11.7241 C.3     1  UNL1        0.0038
     17 C           2.6686   42.0522   10.8516 C.3     1  UNL1        0.0038
     18 C           2.8879   41.5043    9.4606 C.3     1  UNL1        0.0435
     19 C          13.2170   40.0002   10.7606 C.3     1  UNL1        0.1082
     20 C          13.6610   38.8711    9.8453 C.3     1  UNL1        0.0937
     21 N          14.7711   39.3039    9.0104 N.3     1  UNL1       -0.2708
     22 C          16.9261   39.4189   10.3131 C.3     1  UNL1        0.0922
     23 C          17.3542   40.6891    9.5717 C.3     1  UNL1        0.0119
     24 C          16.2345   41.2713    8.7040 C.3     1  UNL1        0.0179
     25 C          14.8702   40.7622    9.1608 C.3     1  UNL1        0.0722
     26 C          15.9734   38.5729    9.4598 C.3     1  UNL1        0.0812
     27 N          19.4241   39.1827   10.6672 N.am    1  UNL1       -0.3288
     28 C          18.1161   38.6212   10.7289 C.2     1  UNL1        0.2203
     29 O          17.9631   37.4380   11.1286 O.2     1  UNL1       -0.2753
     30 H          19.5484   40.1081   10.3551 H       1  UNL1        0.1449
     31 H          20.2037   38.6452   10.9367 H       1  UNL1        0.1449
@<TRIPOS>BOND
     1    27    28   am
     2     1     3   am
     3     2     7    1
     4    22    28    1
     5    22    23    1
     6    23    24    1
     7    24    25    1
     8    25    21    1
     9    20    21    1
    10    20    19    1
    11    19     1    1
    12     3     2   am
    13     8     9   ar
    14     9    13    1
    15    14    13    1
    16    14    15    1
    17    15    16    1
    18    16    17    1
    19    17    18    1
    20    18    14    1
    21    10    11   ar
    22    12     7   ar
    23    26    21    1
    24    26    22    1
    25    28    29    2
    26     3     4    2
    27     7     8   ar
    28     9    10   ar
    29    11    12   ar
    30    27    30    1
    31    27    31    1
    32     1     5    1
    33     2     6    1
