@<TRIPOS>MOLECULE
MolPort-002-773-378 36613101 CSSS00133004254 MCULE-9834902928 ZINC000036613101 ZINC36613101
 28 30 0 0 0
SMALL
GASTEIGER

@<TRIPOS>ATOM
      1 C          12.2096   41.2259    7.0680 C.2     1  UNL1        0.2566
      2 O          11.6154   42.2065    6.5437 O.2     1  UNL1       -0.2692
      3 N          11.5564   39.9568    7.1897 N.am    1  UNL1       -0.2658
      4 H          12.0633   39.2230    7.6067 H       1  UNL1        0.1566
      5 C          13.5840   41.3853    7.5589 C.ar    1  UNL1        0.0846
      6 C          14.4709   42.3874    7.1140 C.ar    1  UNL1        0.0146
      7 C          15.6755   42.2403    7.7876 C.ar    1  UNL1        0.0475
      8 C          15.7324   41.2343    8.6585 C.ar    1  UNL1        0.1088
      9 C          17.4015   40.1599   10.1784 C.3     1  UNL1        0.1543
     10 C          16.9294   42.8183    7.8205 C.ar    1  UNL1        0.1740
     11 N          16.9444   41.1449    9.2151 N.ar    1  UNL1       -0.2428
     12 N          17.6983   42.1137    8.6996 N.ar    1  UNL1       -0.1648
     13 S          14.3107   40.3624    8.7358 S.2     1  UNL1       -0.0637
     14 C          17.4248   43.9391    6.9640 C.3     1  UNL1        0.4366
     15 F          16.4540   44.9187    6.8630 F       1  UNL1       -0.1643
     16 F          17.7206   43.4574    5.7027 F       1  UNL1       -0.1643
     17 F          18.5649   44.4904    7.5196 F       1  UNL1       -0.1643
     18 C           8.0909   39.6806    6.5281 C.ar    1  UNL1        0.1787
     19 C          10.2239   39.6737    6.7519 C.ar    1  UNL1        0.1294
     20 C           9.0965   40.2844    7.2624 C.ar    1  UNL1        0.0613
     21 N           8.5972   38.7867    5.6570 N.ar    1  UNL1       -0.1650
     22 N           9.9114   38.7818    5.7943 N.ar    1  UNL1       -0.2626
     23 H          10.5469   38.2262    5.2876 H       1  UNL1        0.1903
     24 C           6.6588   39.9629    6.6656 C.2     1  UNL1        0.3609
     25 O           5.8416   39.4699    5.8410 O.2     1  UNL1       -0.2431
     26 O           6.2110   40.7750    7.7096 O.3     1  UNL1       -0.4444
     27 C           6.7027   42.6941    9.0590 C.3     1  UNL1        0.0513
     28 C           6.3526   42.1873    7.6756 C.3     1  UNL1        0.2089
@<TRIPOS>BOND
     1    27    28    1
     2    28    26    1
     3    24    26    1
     4    24    18    1
     5    19     3    1
     6     1     5    1
     7     5    13   ar
     8     6     7   ar
     9     8    13   ar
    10     8    11   ar
    11     9    11    1
    12    10     7   ar
    13    14    10    1
    14    14    15    1
    15    14    16    1
    16    14    17    1
    17    20    18   ar
    18    22    21   ar
    19    22    19   ar
    20     3     1   am
    21    11    12   ar
    22    24    25    2
    23    18    21   ar
    24    19    20   ar
    25     1     2    2
    26     5     6   ar
    27     7     8   ar
    28    10    12   ar
    29    22    23    1
    30     3     4    1
@<TRIPOS>MOLECULE
MolPort-002-773-378 36613101 CSSS00133004254 MCULE-9834902928 ZINC000036613101 ZINC36613101
 28 30 0 0 0
SMALL
GASTEIGER

@<TRIPOS>ATOM
      1 C           9.0084   42.0408    8.7895 C.2     1  UNL1        0.2566
      2 O           9.6615   42.1748    7.7194 O.2     1  UNL1       -0.2692
      3 N           9.6205   41.4681    9.9512 N.am    1  UNL1       -0.2658
      4 H           9.0679   41.3851   10.7617 H       1  UNL1        0.1566
      5 C           7.6072   42.4753    8.8464 C.ar    1  UNL1        0.0846
      6 C           6.6293   41.8838    9.6726 C.ar    1  UNL1        0.0146
      7 C           5.4247   42.5432    9.4706 C.ar    1  UNL1        0.0475
      8 C           5.4501   43.5357    8.5830 C.ar    1  UNL1        0.1088
      9 C           3.8581   45.1438    7.5198 C.3     1  UNL1        0.1543
     10 C           4.1127   42.4720    9.8961 C.ar    1  UNL1        0.1740
     11 N           4.2360   44.0714    8.4222 N.ar    1  UNL1       -0.2428
     12 N           3.3965   43.4174    9.2224 N.ar    1  UNL1       -0.1648
     13 S           6.9580   43.7581    7.9017 S.2     1  UNL1       -0.0637
     14 C           3.5254   41.4661   10.8333 C.3     1  UNL1        0.4366
     15 F           2.4256   42.0063   11.4744 F       1  UNL1       -0.1643
     16 F           4.4720   41.1074   11.7743 F       1  UNL1       -0.1643
     17 F           3.1308   40.3410   10.1328 F       1  UNL1       -0.1643
     18 C          12.7365   39.8816   10.4965 C.ar    1  UNL1        0.1787
     19 C          10.9732   41.0075   10.0241 C.ar    1  UNL1        0.1294
     20 C          11.3748   39.8997   10.7426 C.ar    1  UNL1        0.0613
     21 N          13.0975   40.9023    9.6952 N.ar    1  UNL1       -0.1650
     22 N          12.0116   41.5965    9.4037 N.ar    1  UNL1       -0.2626
     23 H          11.9700   42.3994    8.8354 H       1  UNL1        0.1903
     24 C          13.6775   38.8912   11.0283 C.2     1  UNL1        0.3609
     25 O          14.2603   39.1077   12.1258 O.2     1  UNL1       -0.2431
     26 O          13.9205   37.7153   10.3156 O.3     1  UNL1       -0.4444
     27 C          12.5633   35.7484   10.1280 C.3     1  UNL1        0.0513
     28 C          13.6853   36.4337   10.8795 C.3     1  UNL1        0.2089
@<TRIPOS>BOND
     1    27    28    1
     2    28    26    1
     3    24    26    1
     4    24    18    1
     5    19     3    1
     6     1     5    1
     7     5    13   ar
     8     6     7   ar
     9     8    13   ar
    10     8    11   ar
    11     9    11    1
    12    10     7   ar
    13    14    10    1
    14    14    15    1
    15    14    16    1
    16    14    17    1
    17    20    18   ar
    18    22    21   ar
    19    22    19   ar
    20     3     1   am
    21    11    12   ar
    22    24    25    2
    23    18    21   ar
    24    19    20   ar
    25     1     2    2
    26     5     6   ar
    27     7     8   ar
    28    10    12   ar
    29    22    23    1
    30     3     4    1
@<TRIPOS>MOLECULE
MolPort-002-773-378 36613101 CSSS00133004254 MCULE-9834902928 ZINC000036613101 ZINC36613101
 28 30 0 0 0
SMALL
GASTEIGER

@<TRIPOS>ATOM
      1 C          12.0472   41.3740    6.6290 C.2     1  UNL1        0.2566
      2 O          11.9097   40.9079    5.4656 O.2     1  UNL1       -0.2692
      3 N          10.9035   41.7583    7.4012 N.am    1  UNL1       -0.2658
      4 H          11.0643   42.1169    8.3038 H       1  UNL1        0.1566
      5 C          13.3919   41.5248    7.1984 C.ar    1  UNL1        0.0846
      6 C          14.3160   42.5100    6.7928 C.ar    1  UNL1        0.0146
      7 C          15.4767   42.3590    7.5388 C.ar    1  UNL1        0.0475
      8 C          15.4694   41.3654    8.4256 C.ar    1  UNL1        0.1088
      9 C          17.0321   40.2946   10.0571 C.3     1  UNL1        0.1543
     10 C          16.7335   42.9229    7.6379 C.ar    1  UNL1        0.1740
     11 N          16.6451   41.2704    9.0545 N.ar    1  UNL1       -0.2428
     12 N          17.4402   42.2227    8.5711 N.ar    1  UNL1       -0.1648
     13 S          14.0350   40.5112    8.4307 S.2     1  UNL1       -0.0637
     14 C          17.2926   44.0251    6.7966 C.3     1  UNL1        0.4366
     15 F          18.4541   44.5108    7.3687 F       1  UNL1       -0.1643
     16 F          16.3669   45.0473    6.7040 F       1  UNL1       -0.1643
     17 F          17.5782   43.5535    5.5284 F       1  UNL1       -0.1643
     18 C           7.5043   41.0485    6.7187 C.ar    1  UNL1        0.1787
     19 C           9.5453   41.6610    6.9614 C.ar    1  UNL1        0.1294
     20 C           8.6419   40.7348    7.4417 C.ar    1  UNL1        0.0613
     21 N           7.7311   42.0793    5.8820 N.ar    1  UNL1       -0.1650
     22 N           8.9884   42.4573    6.0309 N.ar    1  UNL1       -0.2626
     23 H           9.4365   43.1891    5.5483 H       1  UNL1        0.1903
     24 C           6.2143   40.3614    6.8342 C.2     1  UNL1        0.3609
     25 O           5.8951   39.4829    5.9873 O.2     1  UNL1       -0.2431
     26 O           5.3496   40.6848    7.8818 O.3     1  UNL1       -0.4444
     27 C           5.0489   42.8170    8.9349 C.3     1  UNL1        0.0513
     28 C           5.7659   41.4838    8.9791 C.3     1  UNL1        0.2089
@<TRIPOS>BOND
     1    27    28    1
     2    28    26    1
     3    24    26    1
     4    24    18    1
     5    19     3    1
     6     1     5    1
     7     5    13   ar
     8     6     7   ar
     9     8    13   ar
    10     8    11   ar
    11     9    11    1
    12    10     7   ar
    13    14    10    1
    14    14    15    1
    15    14    16    1
    16    14    17    1
    17    20    18   ar
    18    22    21   ar
    19    22    19   ar
    20     3     1   am
    21    11    12   ar
    22    24    25    2
    23    18    21   ar
    24    19    20   ar
    25     1     2    2
    26     5     6   ar
    27     7     8   ar
    28    10    12   ar
    29    22    23    1
    30     3     4    1
@<TRIPOS>MOLECULE
MolPort-002-773-378 36613101 CSSS00133004254 MCULE-9834902928 ZINC000036613101 ZINC36613101
 28 30 0 0 0
SMALL
GASTEIGER

@<TRIPOS>ATOM
      1 C          10.5554   42.5631    9.2933 C.2     1  UNL1        0.2566
      2 O          11.1763   43.5294    9.8133 O.2     1  UNL1       -0.2692
      3 N          11.2610   41.5432    8.5764 N.am    1  UNL1       -0.2658
      4 H          10.7302   40.8101    8.1891 H       1  UNL1        0.1566
      5 C           9.0953   42.4817    9.4231 C.ar    1  UNL1        0.0846
      6 C           8.1889   43.2017    8.6176 C.ar    1  UNL1        0.0146
      7 C           6.8976   42.8836    9.0151 C.ar    1  UNL1        0.0475
      8 C           6.7989   42.0173   10.0217 C.ar    1  UNL1        0.1088
      9 C           5.0176   40.9734   11.4315 C.3     1  UNL1        0.1543
     10 C           5.5964   43.2276    8.7052 C.ar    1  UNL1        0.1740
     11 N           5.5222   41.8161   10.3628 N.ar    1  UNL1       -0.2428
     12 N           4.7671   42.5654    9.5620 N.ar    1  UNL1       -0.1648
     13 S           8.2850   41.5073   10.5865 S.2     1  UNL1       -0.0637
     14 C           5.1499   44.2391    7.6989 C.3     1  UNL1        0.4366
     15 F           3.7705   44.3364    7.7098 F       1  UNL1       -0.1643
     16 F           5.5705   43.8521    6.4405 F       1  UNL1       -0.1643
     17 F           5.6910   45.4758    7.9994 F       1  UNL1       -0.1643
     18 C          14.7744   41.1207    8.6136 C.ar    1  UNL1        0.1787
     19 C          12.6779   41.5080    8.3801 C.ar    1  UNL1        0.1294
     20 C          13.5597   40.8663    9.2259 C.ar    1  UNL1        0.0613
     21 N          14.6094   41.8548    7.4965 N.ar    1  UNL1       -0.1650
     22 N          13.3179   42.0939    7.3518 N.ar    1  UNL1       -0.2626
     23 H          12.8998   42.6077    6.6235 H       1  UNL1        0.1903
     24 C          16.0784   40.6608    9.1011 C.2     1  UNL1        0.3609
     25 O          16.2470   39.4432    9.3838 O.2     1  UNL1       -0.2431
     26 O          17.1237   41.5749    9.2477 O.3     1  UNL1       -0.4444
     27 C          17.6839   43.7322    8.3655 C.3     1  UNL1        0.0513
     28 C          17.7046   42.2358    8.1334 C.3     1  UNL1        0.2089
@<TRIPOS>BOND
     1    27    28    1
     2    28    26    1
     3    24    26    1
     4    24    18    1
     5    19     3    1
     6     1     5    1
     7     5    13   ar
     8     6     7   ar
     9     8    13   ar
    10     8    11   ar
    11     9    11    1
    12    10     7   ar
    13    14    10    1
    14    14    15    1
    15    14    16    1
    16    14    17    1
    17    20    18   ar
    18    22    21   ar
    19    22    19   ar
    20     3     1   am
    21    11    12   ar
    22    24    25    2
    23    18    21   ar
    24    19    20   ar
    25     1     2    2
    26     5     6   ar
    27     7     8   ar
    28    10    12   ar
    29    22    23    1
    30     3     4    1
@<TRIPOS>MOLECULE
MolPort-002-773-378 36613101 CSSS00133004254 MCULE-9834902928 ZINC000036613101 ZINC36613101
 28 30 0 0 0
SMALL
GASTEIGER

@<TRIPOS>ATOM
      1 C           9.1149   41.9422    8.2329 C.2     1  UNL1        0.2566
      2 O           9.4642   41.6797    7.0502 O.2     1  UNL1       -0.2692
      3 N          10.0626   41.8774    9.3051 N.am    1  UNL1       -0.2658
      4 H           9.7399   42.0913   10.2103 H       1  UNL1        0.1566
      5 C           7.7240   42.3179    8.5147 C.ar    1  UNL1        0.0846
      6 C           6.8978   41.6510    9.4429 C.ar    1  UNL1        0.0146
      7 C           5.6558   42.2706    9.4519 C.ar    1  UNL1        0.0475
      8 C           5.5182   43.3030    8.6218 C.ar    1  UNL1        0.1088
      9 C           3.7359   44.8936    7.8845 C.3     1  UNL1        0.1543
     10 C           4.4236   42.1282   10.0592 C.ar    1  UNL1        0.1740
     11 N           4.2769   43.7970    8.6666 N.ar    1  UNL1       -0.2428
     12 N           3.5858   43.0742    9.5458 N.ar    1  UNL1       -0.1648
     13 S           6.9015   43.6158    7.7410 S.2     1  UNL1       -0.0637
     14 C           4.0134   41.0580   11.0192 C.3     1  UNL1        0.4366
     15 F           5.1270   40.5542   11.6662 F       1  UNL1       -0.1643
     16 F           3.3855   40.0381   10.3295 F       1  UNL1       -0.1643
     17 F           3.1417   41.5754   11.9598 F       1  UNL1       -0.1643
     18 C          13.3759   40.6416    9.4432 C.ar    1  UNL1        0.1787
     19 C          11.4421   41.5255    9.1618 C.ar    1  UNL1        0.1294
     20 C          12.1021   40.6352    9.9842 C.ar    1  UNL1        0.0613
     21 N          13.4490   41.4734    8.3863 N.ar    1  UNL1       -0.1650
     22 N          12.2579   42.0184    8.2122 N.ar    1  UNL1       -0.2626
     23 H          12.0120   42.6675    7.5141 H       1  UNL1        0.1903
     24 C          14.5085   39.8547    9.9406 C.2     1  UNL1        0.3609
     25 O          15.4372   39.5273    9.1525 O.2     1  UNL1       -0.2431
     26 O          14.5502   39.4747   11.2836 O.3     1  UNL1       -0.4444
     27 C          13.9003   37.1718   11.4252 C.3     1  UNL1        0.0513
     28 C          14.9932   38.1872   11.6858 C.3     1  UNL1        0.2089
@<TRIPOS>BOND
     1    27    28    1
     2    28    26    1
     3    24    26    1
     4    24    18    1
     5    19     3    1
     6     1     5    1
     7     5    13   ar
     8     6     7   ar
     9     8    13   ar
    10     8    11   ar
    11     9    11    1
    12    10     7   ar
    13    14    10    1
    14    14    15    1
    15    14    16    1
    16    14    17    1
    17    20    18   ar
    18    22    21   ar
    19    22    19   ar
    20     3     1   am
    21    11    12   ar
    22    24    25    2
    23    18    21   ar
    24    19    20   ar
    25     1     2    2
    26     5     6   ar
    27     7     8   ar
    28    10    12   ar
    29    22    23    1
    30     3     4    1
@<TRIPOS>MOLECULE
MolPort-002-773-378 36613101 CSSS00133004254 MCULE-9834902928 ZINC000036613101 ZINC36613101
 28 30 0 0 0
SMALL
GASTEIGER

@<TRIPOS>ATOM
      1 C           9.0617   42.0704    7.7405 C.2     1  UNL1        0.2566
      2 O           9.2857   41.7590    6.5395 O.2     1  UNL1       -0.2692
      3 N          10.1244   42.0853    8.7010 N.am    1  UNL1       -0.2658
      4 H           9.8975   42.3351    9.6258 H       1  UNL1        0.1566
      5 C           7.6991   42.4209    8.1596 C.ar    1  UNL1        0.0846
      6 C           6.9883   41.7513    9.1771 C.ar    1  UNL1        0.0146
      7 C           5.7401   42.3446    9.3061 C.ar    1  UNL1        0.0475
      8 C           5.4944   43.3607    8.4810 C.ar    1  UNL1        0.1088
      9 C           3.6100   44.9016    7.9108 C.3     1  UNL1        0.1543
     10 C           4.5806   42.1858   10.0395 C.ar    1  UNL1        0.1740
     11 N           4.2534   43.8290    8.6473 N.ar    1  UNL1       -0.2428
     12 N           3.6732   43.1058    9.6028 N.ar    1  UNL1       -0.1648
     13 S           6.7722   43.6889    7.4578 S.2     1  UNL1       -0.0637
     14 C           4.2959   41.1223   11.0510 C.3     1  UNL1        0.4366
     15 F           5.4719   40.7271   11.6619 F       1  UNL1       -0.1643
     16 F           3.7189   40.0342   10.4238 F       1  UNL1       -0.1643
     17 F           3.4286   41.6055   12.0137 F       1  UNL1       -0.1643
     18 C          13.5318   41.1340    8.6047 C.ar    1  UNL1        0.1787
     19 C          11.4903   41.7651    8.4195 C.ar    1  UNL1        0.1294
     20 C          12.3780   41.2750    9.3557 C.ar    1  UNL1        0.0613
     21 N          13.3284   41.5139    7.3285 N.ar    1  UNL1       -0.1650
     22 N          12.0708   41.9028    7.2136 N.ar    1  UNL1       -0.2626
     23 H          11.6371   42.2335    6.3939 H       1  UNL1        0.1903
     24 C          14.8148   40.6389    9.1127 C.2     1  UNL1        0.3609
     25 O          14.8426   39.9219   10.1500 O.2     1  UNL1       -0.2431
     26 O          15.9961   40.9647    8.4432 O.3     1  UNL1       -0.4444
     27 C          17.5919   42.7299    8.1548 C.3     1  UNL1        0.0513
     28 C          17.0541   41.6618    9.0839 C.3     1  UNL1        0.2089
@<TRIPOS>BOND
     1    27    28    1
     2    28    26    1
     3    24    26    1
     4    24    18    1
     5    19     3    1
     6     1     5    1
     7     5    13   ar
     8     6     7   ar
     9     8    13   ar
    10     8    11   ar
    11     9    11    1
    12    10     7   ar
    13    14    10    1
    14    14    15    1
    15    14    16    1
    16    14    17    1
    17    20    18   ar
    18    22    21   ar
    19    22    19   ar
    20     3     1   am
    21    11    12   ar
    22    24    25    2
    23    18    21   ar
    24    19    20   ar
    25     1     2    2
    26     5     6   ar
    27     7     8   ar
    28    10    12   ar
    29    22    23    1
    30     3     4    1
@<TRIPOS>MOLECULE
MolPort-002-773-378 36613101 CSSS00133004254 MCULE-9834902928 ZINC000036613101 ZINC36613101
 28 30 0 0 0
SMALL
GASTEIGER

@<TRIPOS>ATOM
      1 C           8.9940   41.5237   10.6422 C.2     1  UNL1        0.2566
      2 O           9.3950   41.3428   11.8238 O.2     1  UNL1       -0.2692
      3 N           9.8943   41.3848    9.5366 N.am    1  UNL1       -0.2658
      4 H           9.5321   41.5368    8.6339 H       1  UNL1        0.1566
      5 C           7.5913   41.8803   10.3962 C.ar    1  UNL1        0.0846
      6 C           7.1601   42.7087    9.3394 C.ar    1  UNL1        0.0146
      7 C           5.7792   42.8301    9.4103 C.ar    1  UNL1        0.0475
      8 C           5.1915   42.1772   10.4113 C.ar    1  UNL1        0.1088
      9 C           2.9039   41.8912   11.3785 C.3     1  UNL1        0.1543
     10 C           4.7547   43.4835    8.7539 C.ar    1  UNL1        0.1740
     11 N           3.8731   42.3975   10.4239 N.ar    1  UNL1       -0.2428
     12 N           3.5896   43.2112    9.4088 N.ar    1  UNL1       -0.1648
     13 S           6.2775   41.3493   11.3717 S.2     1  UNL1       -0.0637
     14 C           4.8839   44.4294    7.6033 C.3     1  UNL1        0.4366
     15 F           3.6388   44.9209    7.2561 F       1  UNL1       -0.1643
     16 F           5.4306   43.7651    6.5215 F       1  UNL1       -0.1643
     17 F           5.7048   45.4867    7.9503 F       1  UNL1       -0.1643
     18 C          13.1322   40.1435   10.2429 C.ar    1  UNL1        0.1787
     19 C          11.2794   41.0423    9.6435 C.ar    1  UNL1        0.1294
     20 C          11.7779   40.1047   10.5250 C.ar    1  UNL1        0.0613
     21 N          13.3990   41.0367    9.2706 N.ar    1  UNL1       -0.1650
     22 N          12.2580   41.5909    8.9008 N.ar    1  UNL1       -0.2626
     23 H          12.1444   42.2804    8.2073 H       1  UNL1        0.1903
     24 C          14.1561   39.3285   10.9038 C.2     1  UNL1        0.3609
     25 O          14.0029   38.9869   12.1083 O.2     1  UNL1       -0.2431
     26 O          15.2927   38.9363   10.1939 O.3     1  UNL1       -0.4444
     27 C          17.6134   38.5934   10.6865 C.3     1  UNL1        0.0513
     28 C          16.5377   39.6024   10.3428 C.3     1  UNL1        0.2089
@<TRIPOS>BOND
     1    27    28    1
     2    28    26    1
     3    24    26    1
     4    24    18    1
     5    19     3    1
     6     1     5    1
     7     5    13   ar
     8     6     7   ar
     9     8    13   ar
    10     8    11   ar
    11     9    11    1
    12    10     7   ar
    13    14    10    1
    14    14    15    1
    15    14    16    1
    16    14    17    1
    17    20    18   ar
    18    22    21   ar
    19    22    19   ar
    20     3     1   am
    21    11    12   ar
    22    24    25    2
    23    18    21   ar
    24    19    20   ar
    25     1     2    2
    26     5     6   ar
    27     7     8   ar
    28    10    12   ar
    29    22    23    1
    30     3     4    1
@<TRIPOS>MOLECULE
MolPort-002-773-378 36613101 CSSS00133004254 MCULE-9834902928 ZINC000036613101 ZINC36613101
 28 30 0 0 0
SMALL
GASTEIGER

@<TRIPOS>ATOM
      1 C          11.0914   41.6908    7.5929 C.2     1  UNL1        0.2566
      2 O          10.5836   41.1498    6.5735 O.2     1  UNL1       -0.2692
      3 N          10.2608   42.1488    8.6663 N.am    1  UNL1       -0.2658
      4 H          10.7059   42.5644    9.4398 H       1  UNL1        0.1566
      5 C          12.5478   41.8536    7.6813 C.ar    1  UNL1        0.0846
      6 C          13.2955   42.7323    6.8703 C.ar    1  UNL1        0.0146
      7 C          14.6334   42.6281    7.2250 C.ar    1  UNL1        0.0475
      8 C          14.9080   41.7626    8.1992 C.ar    1  UNL1        0.1088
      9 C          16.9082   40.8468    9.3872 C.3     1  UNL1        0.1543
     10 C          15.8570   43.1414    6.8418 C.ar    1  UNL1        0.1740
     11 N          16.2229   41.6976    8.4314 N.ar    1  UNL1       -0.2428
     12 N          16.8235   42.5394    7.5927 N.ar    1  UNL1       -0.1648
     13 S          13.5490   40.9840    8.7772 S.2     1  UNL1       -0.0637
     14 C          16.1200   44.0950    5.7207 C.3     1  UNL1        0.4366
     15 F          15.3047   43.7932    4.6453 F       1  UNL1       -0.1643
     16 F          17.4429   43.9950    5.3333 F       1  UNL1       -0.1643
     17 F          15.8627   45.3902    6.1315 F       1  UNL1       -0.1643
     18 C           6.7424   42.5220    8.7415 C.ar    1  UNL1        0.1787
     19 C           8.8338   42.0486    8.7008 C.ar    1  UNL1        0.1294
     20 C           7.9826   43.1349    8.7028 C.ar    1  UNL1        0.0613
     21 N           6.8652   41.1809    8.7604 N.ar    1  UNL1       -0.1650
     22 N           8.1536   40.8883    8.7353 N.ar    1  UNL1       -0.2626
     23 H           8.5448   39.9849    8.7409 H       1  UNL1        0.1903
     24 C           5.4546   43.2225    8.7601 C.2     1  UNL1        0.3609
     25 O           5.2307   44.1430    7.9273 O.2     1  UNL1       -0.2431
     26 O           4.4857   42.8642    9.6995 O.3     1  UNL1       -0.4444
     27 C           3.5579   40.7083   10.1867 C.3     1  UNL1        0.0513
     28 C           3.4200   41.9822    9.3796 C.3     1  UNL1        0.2089
@<TRIPOS>BOND
     1    27    28    1
     2    28    26    1
     3    24    26    1
     4    24    18    1
     5    19     3    1
     6     1     5    1
     7     5    13   ar
     8     6     7   ar
     9     8    13   ar
    10     8    11   ar
    11     9    11    1
    12    10     7   ar
    13    14    10    1
    14    14    15    1
    15    14    16    1
    16    14    17    1
    17    20    18   ar
    18    22    21   ar
    19    22    19   ar
    20     3     1   am
    21    11    12   ar
    22    24    25    2
    23    18    21   ar
    24    19    20   ar
    25     1     2    2
    26     5     6   ar
    27     7     8   ar
    28    10    12   ar
    29    22    23    1
    30     3     4    1
@<TRIPOS>MOLECULE
MolPort-002-773-378 36613101 CSSS00133004254 MCULE-9834902928 ZINC000036613101 ZINC36613101
 28 30 0 0 0
SMALL
GASTEIGER

@<TRIPOS>ATOM
      1 C          11.8129   40.7291    7.7583 C.2     1  UNL1        0.2566
      2 O          11.3366   39.6742    7.2582 O.2     1  UNL1       -0.2692
      3 N          11.0010   41.9007    7.9000 N.am    1  UNL1       -0.2658
      4 H          11.4200   42.6987    8.2962 H       1  UNL1        0.1566
      5 C          13.2127   40.7577    8.1996 C.ar    1  UNL1        0.0846
      6 C          14.1344   41.7627    7.8399 C.ar    1  UNL1        0.0146
      7 C          15.3556   41.4731    8.4327 C.ar    1  UNL1        0.0475
      8 C          15.3926   40.3644    9.1696 C.ar    1  UNL1        0.1088
      9 C          17.0608   39.0271   10.4655 C.3     1  UNL1        0.1543
     10 C          16.6396   41.9798    8.4771 C.ar    1  UNL1        0.1740
     11 N          16.6196   40.1463    9.6532 N.ar    1  UNL1       -0.2428
     12 N          17.4039   41.1336    9.2257 N.ar    1  UNL1       -0.1648
     13 S          13.9296   39.5609    9.2062 S.2     1  UNL1       -0.0637
     14 C          17.1605   43.1732    7.7425 C.3     1  UNL1        0.4366
     15 F          16.1162   43.8410    7.1294 F       1  UNL1       -0.1643
     16 F          18.0663   42.7626    6.7827 F       1  UNL1       -0.1643
     17 F          17.7896   44.0334    8.6237 F       1  UNL1       -0.1643
     18 C           7.4906   42.1752    7.5454 C.ar    1  UNL1        0.1787
     19 C           9.6280   42.0006    7.5100 C.ar    1  UNL1        0.1294
     20 C           8.5782   42.1128    8.3989 C.ar    1  UNL1        0.0613
     21 N           7.8804   42.1045    6.2581 N.ar    1  UNL1       -0.1650
     22 N           9.1972   41.9969    6.2353 N.ar    1  UNL1       -0.2626
     23 H           9.7610   41.9268    5.4313 H       1  UNL1        0.1903
     24 C           6.0923   42.3014    7.9675 C.2     1  UNL1        0.3609
     25 O           5.5246   43.4269    7.9246 O.2     1  UNL1       -0.2431
     26 O           5.3997   41.1737    8.4129 O.3     1  UNL1       -0.4444
     27 C           3.2258   41.3464    9.4081 C.3     1  UNL1        0.0513
     28 C           4.7084   41.1587    9.6530 C.3     1  UNL1        0.2089
@<TRIPOS>BOND
     1    27    28    1
     2    28    26    1
     3    24    26    1
     4    24    18    1
     5    19     3    1
     6     1     5    1
     7     5    13   ar
     8     6     7   ar
     9     8    13   ar
    10     8    11   ar
    11     9    11    1
    12    10     7   ar
    13    14    10    1
    14    14    15    1
    15    14    16    1
    16    14    17    1
    17    20    18   ar
    18    22    21   ar
    19    22    19   ar
    20     3     1   am
    21    11    12   ar
    22    24    25    2
    23    18    21   ar
    24    19    20   ar
    25     1     2    2
    26     5     6   ar
    27     7     8   ar
    28    10    12   ar
    29    22    23    1
    30     3     4    1
@<TRIPOS>MOLECULE
MolPort-002-773-378 36613101 CSSS00133004254 MCULE-9834902928 ZINC000036613101 ZINC36613101
 28 30 0 0 0
SMALL
GASTEIGER

@<TRIPOS>ATOM
      1 C           7.1071   42.0783    8.3122 C.2     1  UNL1        0.2566
      2 O           7.3636   42.9721    9.1637 O.2     1  UNL1       -0.2692
      3 N           5.7884   41.5294    8.2049 N.am    1  UNL1       -0.2658
      4 H           5.6397   40.8338    7.5243 H       1  UNL1        0.1566
      5 C           8.1697   41.5947    7.4220 C.ar    1  UNL1        0.0846
      6 C           9.5391   41.8835    7.5962 C.ar    1  UNL1        0.0146
      7 C          10.2522   41.2677    6.5771 C.ar    1  UNL1        0.0475
      8 C           9.5270   40.5782    5.6982 C.ar    1  UNL1        0.1088
      9 C           9.8685   39.2919    3.5817 C.3     1  UNL1        0.1543
     10 C          11.5553   41.1634    6.1316 C.ar    1  UNL1        0.1740
     11 N          10.2963   40.0682    4.7313 N.ar    1  UNL1       -0.2428
     12 N          11.5531   40.4295    4.9819 N.ar    1  UNL1       -0.1648
     13 S           7.8918   40.6196    6.0323 S.2     1  UNL1       -0.0637
     14 C          12.7600   41.8304    6.7139 C.3     1  UNL1        0.4366
     15 F          12.3713   42.7622    7.6589 F       1  UNL1       -0.1643
     16 F          13.4643   42.4659    5.7087 F       1  UNL1       -0.1643
     17 F          13.5756   40.8906    7.3170 F       1  UNL1       -0.1643
     18 C           3.2464   42.0703   10.6070 C.ar    1  UNL1        0.1787
     19 C           4.6705   41.9144    9.0109 C.ar    1  UNL1        0.1294
     20 C           4.3999   41.3898   10.2583 C.ar    1  UNL1        0.0613
     21 N           2.8759   42.9255    9.6346 N.ar    1  UNL1       -0.1650
     22 N           3.7528   42.8301    8.6507 N.ar    1  UNL1       -0.2626
     23 H           3.7375   43.3372    7.8070 H       1  UNL1        0.1903
     24 C           2.5109   41.8971   11.8633 C.2     1  UNL1        0.3609
     25 O           2.9535   41.1105   12.7444 O.2     1  UNL1       -0.2431
     26 O           1.3261   42.6053   12.0746 O.3     1  UNL1       -0.4444
     27 C          -0.4224   42.2051   13.6647 C.3     1  UNL1        0.0513
     28 C           0.8723   42.9367   13.3785 C.3     1  UNL1        0.2089
@<TRIPOS>BOND
     1    27    28    1
     2    28    26    1
     3    24    26    1
     4    24    18    1
     5    19     3    1
     6     1     5    1
     7     5    13   ar
     8     6     7   ar
     9     8    13   ar
    10     8    11   ar
    11     9    11    1
    12    10     7   ar
    13    14    10    1
    14    14    15    1
    15    14    16    1
    16    14    17    1
    17    20    18   ar
    18    22    21   ar
    19    22    19   ar
    20     3     1   am
    21    11    12   ar
    22    24    25    2
    23    18    21   ar
    24    19    20   ar
    25     1     2    2
    26     5     6   ar
    27     7     8   ar
    28    10    12   ar
    29    22    23    1
    30     3     4    1
