@<TRIPOS>MOLECULE
MolPort-002-996-116 6138554 CSSS00132429919 MCULE-9708141520 PubChem-4017425 ZINC000006138554 ZINC06138554
 24 25 0 0 0
SMALL
GASTEIGER

@<TRIPOS>ATOM
      1 C          12.7137   41.7556    6.4382 C.2     1  UNL1        0.2729
      2 N          12.9400   43.0068    5.7818 N.am    1  UNL1       -0.2485
      3 O          13.6014   41.2319    7.1626 O.2     1  UNL1       -0.2706
      4 H          12.2154   43.3632    5.2186 H       1  UNL1        0.1579
      5 C          14.1401   43.7787    5.8826 C.ar    1  UNL1        0.2617
      6 N          16.1130   44.3259    6.3049 N.ar    1  UNL1       -0.1497
      7 N          15.5285   45.3656    5.7352 N.ar    1  UNL1       -0.0438
      8 N          14.2736   45.0515    5.4561 N.ar    1  UNL1       -0.0918
      9 N          15.2809   43.3044    6.4140 N.ar    1  UNL1       -0.1137
     10 C          17.5027   44.3044    6.7281 C.3     1  UNL1        0.1514
     11 C          17.8543   42.9383    7.2933 C.3     1  UNL1        0.0283
     12 C          17.1153   41.4669    9.1651 C.3     1  UNL1        0.0001
     13 C          17.5218   42.8751    8.7731 C.3     1  UNL1        0.0021
     14 C          11.3958   41.0772    6.2856 C.3     1  UNL1        0.2897
     15 O          10.4133   41.7180    7.0936 O.3     1  UNL1       -0.4656
     16 C          10.3509   41.5775    8.4846 C.ar    1  UNL1        0.1387
     17 C          11.3598   40.8671    9.1381 C.ar    1  UNL1        0.0335
     18 C          11.3331   40.7053   10.5262 C.ar    1  UNL1       -0.0086
     19 C          12.4347   39.9395   11.1753 C.3     1  UNL1        0.0320
     20 C          10.2818   41.2606   11.2800 C.ar    1  UNL1        0.0499
     21 C           9.2627   41.9747   10.6224 C.ar    1  UNL1       -0.0086
     22 C           8.1281   42.5819   11.3742 C.3     1  UNL1        0.0320
     23 C           9.3017   42.1274    9.2344 C.ar    1  UNL1        0.0335
     24 CL         10.2415   41.0626   13.0339 Cl      1  UNL1       -0.0829
@<TRIPOS>BOND
     1    12    13    1
     2    13    11    1
     3    11    10    1
     4    10     6    1
     5     5     8   ar
     6     5     2    1
     7    14     1    1
     8    14    15    1
     9    16    15    1
    10    17    18   ar
    11    19    18    1
    12    20    24    1
    13    20    21   ar
    14    22    21    1
    15    23    16   ar
    16     6     7   ar
    17     6     9   ar
    18     2     1   am
    19     5     9   ar
    20     1     3    2
    21    16    17   ar
    22    18    20   ar
    23    21    23   ar
    24     7     8   ar
    25     2     4    1
@<TRIPOS>MOLECULE
MolPort-002-996-116 6138554 CSSS00132429919 MCULE-9708141520 PubChem-4017425 ZINC000006138554 ZINC06138554
 24 25 0 0 0
SMALL
GASTEIGER

@<TRIPOS>ATOM
      1 C          12.5263   41.6603    6.5762 C.2     1  UNL1        0.2729
      2 N          12.8744   42.7546    5.7224 N.am    1  UNL1       -0.2485
      3 O          13.2711   41.3208    7.5338 O.2     1  UNL1       -0.2706
      4 H          12.2609   42.9678    4.9825 H       1  UNL1        0.1579
      5 C          14.0468   43.5619    5.8632 C.ar    1  UNL1        0.2617
      6 N          15.9971   44.1580    6.3225 N.ar    1  UNL1       -0.1497
      7 N          15.3813   45.1993    5.7900 N.ar    1  UNL1       -0.0438
      8 N          14.1397   44.8544    5.4887 N.ar    1  UNL1       -0.0918
      9 N          15.1996   43.1054    6.3844 N.ar    1  UNL1       -0.1137
     10 C          17.3839   44.1665    6.7555 C.3     1  UNL1        0.1514
     11 C          17.4798   43.7228    8.2058 C.3     1  UNL1        0.0283
     12 C          16.8751   41.4497    9.0319 C.3     1  UNL1        0.0001
     13 C          17.9125   42.2700    8.2883 C.3     1  UNL1        0.0021
     14 C          11.2476   40.9306    6.3460 C.3     1  UNL1        0.2897
     15 O          10.1375   41.7835    6.6085 O.3     1  UNL1       -0.4656
     16 C           9.3624   41.7010    7.7708 C.ar    1  UNL1        0.1387
     17 C           7.9735   41.6196    7.6526 C.ar    1  UNL1        0.0335
     18 C           7.1651   41.5355    8.7898 C.ar    1  UNL1       -0.0086
     19 C           5.6882   41.4492    8.6090 C.3     1  UNL1        0.0320
     20 C           7.7493   41.5327   10.0706 C.ar    1  UNL1        0.0499
     21 C           9.1490   41.6174   10.1914 C.ar    1  UNL1       -0.0086
     22 C           9.8165   41.6182   11.5240 C.3     1  UNL1        0.0320
     23 C           9.9444   41.7022    9.0463 C.ar    1  UNL1        0.0335
     24 CL          6.7357   41.4247   11.5121 Cl      1  UNL1       -0.0829
@<TRIPOS>BOND
     1    12    13    1
     2    13    11    1
     3    11    10    1
     4    10     6    1
     5     5     8   ar
     6     5     2    1
     7    14     1    1
     8    14    15    1
     9    16    15    1
    10    17    18   ar
    11    19    18    1
    12    20    24    1
    13    20    21   ar
    14    22    21    1
    15    23    16   ar
    16     6     7   ar
    17     6     9   ar
    18     2     1   am
    19     5     9   ar
    20     1     3    2
    21    16    17   ar
    22    18    20   ar
    23    21    23   ar
    24     7     8   ar
    25     2     4    1
@<TRIPOS>MOLECULE
MolPort-002-996-116 6138554 CSSS00132429919 MCULE-9708141520 PubChem-4017425 ZINC000006138554 ZINC06138554
 24 25 0 0 0
SMALL
GASTEIGER

@<TRIPOS>ATOM
      1 C          12.4994   41.3233    7.2615 C.2     1  UNL1        0.2729
      2 N          12.4878   42.5559    6.5346 N.am    1  UNL1       -0.2485
      3 O          13.5749   40.8414    7.7064 O.2     1  UNL1       -0.2706
      4 H          11.6201   42.8791    6.2002 H       1  UNL1        0.1579
      5 C          13.6423   43.3536    6.2575 C.ar    1  UNL1        0.2617
      6 N          15.5760   44.1413    6.3599 N.ar    1  UNL1       -0.1497
      7 N          14.9440   44.7721    5.3853 N.ar    1  UNL1       -0.0438
      8 N          13.7124   44.2964    5.2953 N.ar    1  UNL1       -0.0918
      9 N          14.7993   43.2381    6.9333 N.ar    1  UNL1       -0.1137
     10 C          16.9584   44.3923    6.7297 C.3     1  UNL1        0.1514
     11 C          17.2287   43.8609    8.1275 C.3     1  UNL1        0.0283
     12 C          17.1711   41.5388    9.0328 C.3     1  UNL1        0.0001
     13 C          17.8542   42.4795    8.0578 C.3     1  UNL1        0.0021
     14 C          11.2143   40.6150    7.5213 C.3     1  UNL1        0.2897
     15 O          10.6039   41.1169    8.7062 O.3     1  UNL1       -0.4656
     16 C           9.3470   41.7320    8.7225 C.ar    1  UNL1        0.1387
     17 C           9.2663   43.0974    9.0027 C.ar    1  UNL1        0.0335
     18 C           8.0294   43.7480    9.0279 C.ar    1  UNL1       -0.0086
     19 C           7.9980   45.2070    9.3308 C.3     1  UNL1        0.0320
     20 C           6.8486   43.0264    8.7696 C.ar    1  UNL1        0.0499
     21 C           6.9281   41.6494    8.4895 C.ar    1  UNL1       -0.0086
     22 C           5.7081   40.8404    8.2095 C.3     1  UNL1        0.0320
     23 C           8.1709   41.0121    8.4690 C.ar    1  UNL1        0.0335
     24 CL          5.2824   43.8408    8.7974 Cl      1  UNL1       -0.0829
@<TRIPOS>BOND
     1    12    13    1
     2    13    11    1
     3    11    10    1
     4    10     6    1
     5     5     8   ar
     6     5     2    1
     7    14     1    1
     8    14    15    1
     9    16    15    1
    10    17    18   ar
    11    19    18    1
    12    20    24    1
    13    20    21   ar
    14    22    21    1
    15    23    16   ar
    16     6     7   ar
    17     6     9   ar
    18     2     1   am
    19     5     9   ar
    20     1     3    2
    21    16    17   ar
    22    18    20   ar
    23    21    23   ar
    24     7     8   ar
    25     2     4    1
@<TRIPOS>MOLECULE
MolPort-002-996-116 6138554 CSSS00132429919 MCULE-9708141520 PubChem-4017425 ZINC000006138554 ZINC06138554
 24 25 0 0 0
SMALL
GASTEIGER

@<TRIPOS>ATOM
      1 C          10.7835   42.1332    8.3317 C.2     1  UNL1        0.2729
      2 N          11.5234   41.9666    7.1182 N.am    1  UNL1       -0.2485
      3 O          11.3086   42.6664    9.3450 O.2     1  UNL1       -0.2706
      4 H          11.0661   41.5327    6.3620 H       1  UNL1        0.1579
      5 C          12.8775   42.3833    6.9215 C.ar    1  UNL1        0.2617
      6 N          14.5382   43.5662    6.4597 N.ar    1  UNL1       -0.1497
      7 N          14.9897   42.3848    6.8437 N.ar    1  UNL1       -0.0438
      8 N          13.9599   41.6092    7.1424 N.ar    1  UNL1       -0.0918
      9 N          13.2175   43.6134    6.4970 N.ar    1  UNL1       -0.1137
     10 C          15.3911   44.6777    6.0751 C.3     1  UNL1        0.1514
     11 C          16.8493   44.3228    6.3142 C.3     1  UNL1        0.0283
     12 C          18.0774   44.0145    8.4617 C.3     1  UNL1        0.0001
     13 C          16.9889   43.4649    7.5588 C.3     1  UNL1        0.0021
     14 C           9.3601   41.6956    8.3866 C.3     1  UNL1        0.2897
     15 O           8.7037   42.2875    9.5035 O.3     1  UNL1       -0.4656
     16 C           7.3117   42.3382    9.6392 C.ar    1  UNL1        0.1387
     17 C           6.6895   41.4796   10.5476 C.ar    1  UNL1        0.0335
     18 C           5.3016   41.5003   10.7120 C.ar    1  UNL1       -0.0086
     19 C           4.6868   40.5645   11.6957 C.3     1  UNL1        0.0320
     20 C           4.5162   42.3924    9.9577 C.ar    1  UNL1        0.0499
     21 C           5.1417   43.2566    9.0396 C.ar    1  UNL1       -0.0086
     22 C           4.3557   44.2194    8.2172 C.3     1  UNL1        0.0320
     23 C           6.5296   43.2241    8.8849 C.ar    1  UNL1        0.0335
     24 CL          2.7627   42.4265   10.1606 Cl      1  UNL1       -0.0829
@<TRIPOS>BOND
     1    12    13    1
     2    13    11    1
     3    11    10    1
     4    10     6    1
     5     5     8   ar
     6     5     2    1
     7    14     1    1
     8    14    15    1
     9    16    15    1
    10    17    18   ar
    11    19    18    1
    12    20    24    1
    13    20    21   ar
    14    22    21    1
    15    23    16   ar
    16     6     7   ar
    17     6     9   ar
    18     2     1   am
    19     5     9   ar
    20     1     3    2
    21    16    17   ar
    22    18    20   ar
    23    21    23   ar
    24     7     8   ar
    25     2     4    1
@<TRIPOS>MOLECULE
MolPort-002-996-116 6138554 CSSS00132429919 MCULE-9708141520 PubChem-4017425 ZINC000006138554 ZINC06138554
 24 25 0 0 0
SMALL
GASTEIGER

@<TRIPOS>ATOM
      1 C          13.9952   39.1605    9.4850 C.2     1  UNL1        0.2729
      2 N          13.4174   40.1756   10.3116 N.am    1  UNL1       -0.2485
      3 O          13.2872   38.4935    8.6844 O.2     1  UNL1       -0.2706
      4 H          14.0162   40.6570   10.9271 H       1  UNL1        0.1579
      5 C          12.0351   40.5434   10.3108 C.ar    1  UNL1        0.2617
      6 N          10.2456   41.5181    9.8441 N.ar    1  UNL1       -0.1497
      7 N           9.9685   40.5973   10.7509 N.ar    1  UNL1       -0.0438
      8 N          11.0843   39.9613   11.0702 N.ar    1  UNL1       -0.0918
      9 N          11.5306   41.5181    9.5334 N.ar    1  UNL1       -0.1137
     10 C           9.2542   42.3960    9.2464 C.3     1  UNL1        0.1514
     11 C           7.8601   41.8310    9.4620 C.3     1  UNL1        0.0283
     12 C           8.0459   41.5346    6.9937 C.3     1  UNL1        0.0001
     13 C           7.4405   40.9864    8.2723 C.3     1  UNL1        0.0021
     14 C          15.4626   38.9100    9.5516 C.3     1  UNL1        0.2897
     15 O          16.1645   40.1334    9.7501 O.3     1  UNL1       -0.4656
     16 C          16.0961   41.2121    8.8613 C.ar    1  UNL1        0.1387
     17 C          17.1849   42.0811    8.7679 C.ar    1  UNL1        0.0335
     18 C          17.1550   43.1698    7.8917 C.ar    1  UNL1       -0.0086
     19 C          18.3438   44.0665    7.8290 C.3     1  UNL1        0.0320
     20 C          16.0193   43.3994    7.0923 C.ar    1  UNL1        0.0499
     21 C          14.9198   42.5259    7.1872 C.ar    1  UNL1       -0.0086
     22 C          13.6941   42.7251    6.3630 C.3     1  UNL1        0.0320
     23 C          14.9632   41.4427    8.0681 C.ar    1  UNL1        0.0335
     24 CL         15.9740   44.7710    5.9814 Cl      1  UNL1       -0.0829
@<TRIPOS>BOND
     1    12    13    1
     2    13    11    1
     3    11    10    1
     4    10     6    1
     5     5     8   ar
     6     5     2    1
     7    14     1    1
     8    14    15    1
     9    16    15    1
    10    17    18   ar
    11    19    18    1
    12    20    24    1
    13    20    21   ar
    14    22    21    1
    15    23    16   ar
    16     6     7   ar
    17     6     9   ar
    18     2     1   am
    19     5     9   ar
    20     1     3    2
    21    16    17   ar
    22    18    20   ar
    23    21    23   ar
    24     7     8   ar
    25     2     4    1
@<TRIPOS>MOLECULE
MolPort-002-996-116 6138554 CSSS00132429919 MCULE-9708141520 PubChem-4017425 ZINC000006138554 ZINC06138554
 24 25 0 0 0
SMALL
GASTEIGER

@<TRIPOS>ATOM
      1 C          10.9888   40.9684    5.8339 C.2     1  UNL1        0.2729
      2 N          11.5630   42.2791    5.8238 N.am    1  UNL1       -0.2485
      3 O          11.6656   39.9652    6.1838 O.2     1  UNL1       -0.2706
      4 H          10.9910   43.0245    5.5299 H       1  UNL1        0.1579
      5 C          12.9057   42.5875    6.2088 C.ar    1  UNL1        0.2617
      6 N          14.7213   43.6015    6.4216 N.ar    1  UNL1       -0.1497
      7 N          14.8297   42.4571    7.0739 N.ar    1  UNL1       -0.0438
      8 N          13.6938   41.7882    6.9568 N.ar    1  UNL1       -0.0918
      9 N          13.5285   43.7293    5.8661 N.ar    1  UNL1       -0.1137
     10 C          15.7729   44.6017    6.3526 C.3     1  UNL1        0.1514
     11 C          17.1277   43.9255    6.2232 C.3     1  UNL1        0.0283
     12 C          18.0049   42.5737    8.1254 C.3     1  UNL1        0.0001
     13 C          17.8707   43.9697    7.5462 C.3     1  UNL1        0.0021
     14 C           9.5589   40.7931    5.4528 C.3     1  UNL1        0.2897
     15 O           8.7631   41.8227    6.0318 O.3     1  UNL1       -0.4656
     16 C           8.2113   41.7383    7.3151 C.ar    1  UNL1        0.1387
     17 C           9.0430   41.9201    8.4218 C.ar    1  UNL1        0.0335
     18 C           8.5296   41.8438    9.7195 C.ar    1  UNL1       -0.0086
     19 C           9.4593   42.0468   10.8665 C.3     1  UNL1        0.0320
     20 C           7.1614   41.5809    9.9213 C.ar    1  UNL1        0.0499
     21 C           6.3222   41.3947    8.8068 C.ar    1  UNL1       -0.0086
     22 C           4.8672   41.1141    8.9664 C.3     1  UNL1        0.0320
     23 C           6.8495   41.4726    7.5156 C.ar    1  UNL1        0.0335
     24 CL          6.5042   41.4848   11.5572 Cl      1  UNL1       -0.0829
@<TRIPOS>BOND
     1    12    13    1
     2    13    11    1
     3    11    10    1
     4    10     6    1
     5     5     8   ar
     6     5     2    1
     7    14     1    1
     8    14    15    1
     9    16    15    1
    10    17    18   ar
    11    19    18    1
    12    20    24    1
    13    20    21   ar
    14    22    21    1
    15    23    16   ar
    16     6     7   ar
    17     6     9   ar
    18     2     1   am
    19     5     9   ar
    20     1     3    2
    21    16    17   ar
    22    18    20   ar
    23    21    23   ar
    24     7     8   ar
    25     2     4    1
@<TRIPOS>MOLECULE
MolPort-002-996-116 6138554 CSSS00132429919 MCULE-9708141520 PubChem-4017425 ZINC000006138554 ZINC06138554
 24 25 0 0 0
SMALL
GASTEIGER

@<TRIPOS>ATOM
      1 C          10.8283   40.7886    5.7623 C.2     1  UNL1        0.2729
      2 N          11.2683   41.8986    6.5508 N.am    1  UNL1       -0.2485
      3 O          11.6178   40.1914    4.9832 O.2     1  UNL1       -0.2706
      4 H          10.6051   42.3347    7.1333 H       1  UNL1        0.1579
      5 C          12.5994   42.4223    6.5562 C.ar    1  UNL1        0.2617
      6 N          14.6190   42.6928    7.0232 N.ar    1  UNL1       -0.1497
      7 N          14.3025   43.5903    6.1059 N.ar    1  UNL1       -0.0438
      8 N          13.0257   43.4464    5.7888 N.ar    1  UNL1       -0.0918
      9 N          13.5820   41.9339    7.3338 N.ar    1  UNL1       -0.1137
     10 C          15.9474   42.5446    7.5925 C.3     1  UNL1        0.1514
     11 C          16.5782   43.9105    7.8063 C.3     1  UNL1        0.0283
     12 C          17.7402   43.8174    5.6027 C.3     1  UNL1        0.0001
     13 C          17.9191   43.9918    7.0992 C.3     1  UNL1        0.0021
     14 C           9.4214   40.3137    5.8880 C.3     1  UNL1        0.2897
     15 O           9.0698   40.1674    7.2604 O.3     1  UNL1       -0.4656
     16 C          10.0077   39.9459    8.2752 C.ar    1  UNL1        0.1387
     17 C           9.9075   40.6781    9.4598 C.ar    1  UNL1        0.0335
     18 C          10.8249   40.4853   10.4966 C.ar    1  UNL1       -0.0086
     19 C          10.6729   41.2912   11.7411 C.3     1  UNL1        0.0320
     20 C          11.8633   39.5458   10.3527 C.ar    1  UNL1        0.0499
     21 C          11.9672   38.8089    9.1581 C.ar    1  UNL1       -0.0086
     22 C          13.0479   37.8026    8.9559 C.3     1  UNL1        0.0320
     23 C          11.0441   39.0129    8.1299 C.ar    1  UNL1        0.0335
     24 CL         13.0251   39.2947   11.6583 Cl      1  UNL1       -0.0829
@<TRIPOS>BOND
     1    12    13    1
     2    13    11    1
     3    11    10    1
     4    10     6    1
     5     5     8   ar
     6     5     2    1
     7    14     1    1
     8    14    15    1
     9    16    15    1
    10    17    18   ar
    11    19    18    1
    12    20    24    1
    13    20    21   ar
    14    22    21    1
    15    23    16   ar
    16     6     7   ar
    17     6     9   ar
    18     2     1   am
    19     5     9   ar
    20     1     3    2
    21    16    17   ar
    22    18    20   ar
    23    21    23   ar
    24     7     8   ar
    25     2     4    1
@<TRIPOS>MOLECULE
MolPort-002-996-116 6138554 CSSS00132429919 MCULE-9708141520 PubChem-4017425 ZINC000006138554 ZINC06138554
 24 25 0 0 0
SMALL
GASTEIGER

@<TRIPOS>ATOM
      1 C          10.3498   41.6937    8.6682 C.2     1  UNL1        0.2729
      2 N           8.9920   41.2433    8.7007 N.am    1  UNL1       -0.2485
      3 O          10.8526   42.3128    9.6434 O.2     1  UNL1       -0.2706
      4 H           8.6485   40.7751    7.9057 H       1  UNL1        0.1579
      5 C           8.0964   41.4221    9.8016 C.ar    1  UNL1        0.2617
      6 N           6.3346   41.5715   10.9169 N.ar    1  UNL1       -0.1497
      7 N           7.3452   41.7537   11.7492 N.ar    1  UNL1       -0.0438
      8 N           8.4787   41.6668   11.0718 N.ar    1  UNL1       -0.0918
      9 N           6.7583   41.3551    9.6834 N.ar    1  UNL1       -0.1137
     10 C           4.9383   41.5795   11.3181 C.3     1  UNL1        0.1514
     11 C           4.1289   40.6722   10.4065 C.3     1  UNL1        0.0283
     12 C           3.4111   42.8192    9.3624 C.3     1  UNL1        0.0001
     13 C           2.9670   41.4345    9.7955 C.3     1  UNL1        0.0021
     14 C          11.1902   41.3989    7.4735 C.3     1  UNL1        0.2897
     15 O          12.4688   40.9167    7.8751 O.3     1  UNL1       -0.4656
     16 C          13.6562   41.6311    7.6799 C.ar    1  UNL1        0.1387
     17 C          13.6739   42.6710    6.7482 C.ar    1  UNL1        0.0335
     18 C          14.8403   43.4081    6.5249 C.ar    1  UNL1       -0.0086
     19 C          14.8060   44.5088    5.5206 C.3     1  UNL1        0.0320
     20 C          16.0131   43.1052    7.2422 C.ar    1  UNL1        0.0499
     21 C          15.9975   42.0556    8.1797 C.ar    1  UNL1       -0.0086
     22 C          17.2121   41.6950    8.9646 C.3     1  UNL1        0.0320
     23 C          14.8250   41.3265    8.3916 C.ar    1  UNL1        0.0335
     24 CL         17.4901   44.0327    6.9678 Cl      1  UNL1       -0.0829
@<TRIPOS>BOND
     1    12    13    1
     2    13    11    1
     3    11    10    1
     4    10     6    1
     5     5     8   ar
     6     5     2    1
     7    14     1    1
     8    14    15    1
     9    16    15    1
    10    17    18   ar
    11    19    18    1
    12    20    24    1
    13    20    21   ar
    14    22    21    1
    15    23    16   ar
    16     6     7   ar
    17     6     9   ar
    18     2     1   am
    19     5     9   ar
    20     1     3    2
    21    16    17   ar
    22    18    20   ar
    23    21    23   ar
    24     7     8   ar
    25     2     4    1
@<TRIPOS>MOLECULE
MolPort-002-996-116 6138554 CSSS00132429919 MCULE-9708141520 PubChem-4017425 ZINC000006138554 ZINC06138554
 24 25 0 0 0
SMALL
GASTEIGER

@<TRIPOS>ATOM
      1 C          10.2186   41.1138    6.2950 C.2     1  UNL1        0.2729
      2 N           9.6290   40.6456    7.5119 N.am    1  UNL1       -0.2485
      3 O           9.5318   41.7234    5.4327 O.2     1  UNL1       -0.2706
      4 H          10.2108   40.1650    8.1443 H       1  UNL1        0.1579
      5 C           8.2579   40.8233    7.8785 C.ar    1  UNL1        0.2617
      6 N           6.5483   41.4395    8.9118 N.ar    1  UNL1       -0.1497
      7 N           6.1465   40.7263    7.8740 N.ar    1  UNL1       -0.0438
      8 N           7.2085   40.3184    7.1978 N.ar    1  UNL1       -0.0918
      9 N           7.8665   41.5314    8.9529 N.ar    1  UNL1       -0.1137
     10 C           5.6493   42.0656    9.8661 C.3     1  UNL1        0.1514
     11 C           5.2162   41.0547   10.9148 C.3     1  UNL1        0.0283
     12 C           3.0409   41.5631    9.8083 C.3     1  UNL1        0.0001
     13 C           3.8218   40.5381   10.6093 C.3     1  UNL1        0.0021
     14 C          11.6747   40.9025    6.0588 C.3     1  UNL1        0.2897
     15 O          12.4118   41.1642    7.2492 O.3     1  UNL1       -0.4656
     16 C          13.6219   41.8669    7.2654 C.ar    1  UNL1        0.1387
     17 C          14.6658   41.3968    8.0646 C.ar    1  UNL1        0.0335
     18 C          15.8897   42.0706    8.1076 C.ar    1  UNL1       -0.0086
     19 C          16.9721   41.5266    8.9757 C.3     1  UNL1        0.0320
     20 C          16.0795   43.2358    7.3408 C.ar    1  UNL1        0.0499
     21 C          15.0273   43.7124    6.5368 C.ar    1  UNL1       -0.0086
     22 C          15.1772   44.9410    5.7064 C.3     1  UNL1        0.0320
     23 C          13.8092   43.0295    6.5046 C.ar    1  UNL1        0.0335
     24 CL         17.6229   44.0918    7.3877 Cl      1  UNL1       -0.0829
@<TRIPOS>BOND
     1    12    13    1
     2    13    11    1
     3    11    10    1
     4    10     6    1
     5     5     8   ar
     6     5     2    1
     7    14     1    1
     8    14    15    1
     9    16    15    1
    10    17    18   ar
    11    19    18    1
    12    20    24    1
    13    20    21   ar
    14    22    21    1
    15    23    16   ar
    16     6     7   ar
    17     6     9   ar
    18     2     1   am
    19     5     9   ar
    20     1     3    2
    21    16    17   ar
    22    18    20   ar
    23    21    23   ar
    24     7     8   ar
    25     2     4    1
@<TRIPOS>MOLECULE
MolPort-002-996-116 6138554 CSSS00132429919 MCULE-9708141520 PubChem-4017425 ZINC000006138554 ZINC06138554
 24 25 0 0 0
SMALL
GASTEIGER

@<TRIPOS>ATOM
      1 C          12.8551   39.3834    9.3723 C.2     1  UNL1        0.2729
      2 N          11.9600   39.7922    8.3334 N.am    1  UNL1       -0.2485
      3 O          12.4817   39.3473   10.5749 O.2     1  UNL1       -0.2706
      4 H          12.3095   39.8127    7.4133 H       1  UNL1        0.1579
      5 C          10.5956   40.1733    8.5315 C.ar    1  UNL1        0.2617
      6 N           8.8738   40.9995    9.3817 N.ar    1  UNL1       -0.1497
      7 N           8.5178   40.4319    8.2424 N.ar    1  UNL1       -0.0438
      8 N           9.5883   39.8960    7.6782 N.ar    1  UNL1       -0.0918
      9 N          10.1705   40.8665    9.6028 N.ar    1  UNL1       -0.1137
     10 C           7.9571   41.7049   10.2609 C.3     1  UNL1        0.1514
     11 C           8.6558   42.0658   11.5613 C.3     1  UNL1        0.0283
     12 C           9.1876   41.3119   13.8772 C.3     1  UNL1        0.0001
     13 C           8.5144   40.9397   12.5694 C.3     1  UNL1        0.0021
     14 C          14.2416   38.9653    9.0210 C.3     1  UNL1        0.2897
     15 O          15.1749   39.9657    9.4171 O.3     1  UNL1       -0.4656
     16 C          15.4370   41.1148    8.6625 C.ar    1  UNL1        0.1387
     17 C          14.4753   41.5604    7.7536 C.ar    1  UNL1        0.0335
     18 C          14.6997   42.7040    6.9820 C.ar    1  UNL1       -0.0086
     19 C          13.6407   43.1384    6.0275 C.3     1  UNL1        0.0320
     20 C          15.9049   43.4190    7.1163 C.ar    1  UNL1        0.0499
     21 C          16.8764   42.9695    8.0301 C.ar    1  UNL1       -0.0086
     22 C          18.1684   43.6904    8.2099 C.3     1  UNL1        0.0320
     23 C          16.6390   41.8243    8.7938 C.ar    1  UNL1        0.0335
     24 CL         16.1956   44.8657    6.1469 Cl      1  UNL1       -0.0829
@<TRIPOS>BOND
     1    12    13    1
     2    13    11    1
     3    11    10    1
     4    10     6    1
     5     5     8   ar
     6     5     2    1
     7    14     1    1
     8    14    15    1
     9    16    15    1
    10    17    18   ar
    11    19    18    1
    12    20    24    1
    13    20    21   ar
    14    22    21    1
    15    23    16   ar
    16     6     7   ar
    17     6     9   ar
    18     2     1   am
    19     5     9   ar
    20     1     3    2
    21    16    17   ar
    22    18    20   ar
    23    21    23   ar
    24     7     8   ar
    25     2     4    1
