@<TRIPOS>MOLECULE
MolPort-019-771-773 CSSS20538596534 PubChem-56694138 ZINC000005708151 ZINC05708151
 27 28 0 0 0
SMALL
GASTEIGER

@<TRIPOS>ATOM
      1 C           9.8229   40.9633   12.6570 C.ar    1  UNL1        0.2320
      2 C          10.7386   40.3276   11.8099 C.ar    1  UNL1        0.1154
      3 C          10.5050   40.3468   10.4366 C.ar    1  UNL1        0.2320
      4 C           8.5178   41.5923   10.7815 C.ar    1  UNL1        0.2280
      5 N           9.4018   40.9775    9.9498 N.ar    1  UNL1       -0.1784
      6 N           8.7360   41.5798   12.1228 N.ar    1  UNL1       -0.1784
      7 C           7.3051   43.0538    9.0761 C.2     1  UNL1        0.2516
      8 O           8.3395   43.2255    8.3750 O.2     1  UNL1       -0.2697
      9 N           7.3574   42.2554   10.2672 N.am    1  UNL1       -0.2503
     10 H           6.5208   42.1544   10.7762 H       1  UNL1        0.1580
     11 C           6.0336   43.6775    8.6690 C.ar    1  UNL1        0.0541
     12 C           4.8298   43.3004    9.2808 C.ar    1  UNL1        0.0108
     13 C           3.6244   43.8924    8.8943 C.ar    1  UNL1        0.0754
     14 C           3.6049   44.8710    7.8895 C.ar    1  UNL1        0.2901
     15 C           4.8084   45.2477    7.2782 C.ar    1  UNL1        0.0754
     16 C           6.0137   44.6553    7.6651 C.ar    1  UNL1        0.0108
     17 O           1.4079   45.7802    8.4262 O.co2   1  UNL1       -0.5760
     18 O           2.1542   45.7478    6.2888 O.2     1  UNL1        0.0415
     19 N           2.3704   45.4811    7.4894 N.pl3   1  UNL1        0.0809
     20 O          10.0011   40.9802   14.0432 O.3     1  UNL1       -0.4601
     21 C           9.2027   41.7746   14.9124 C.3     1  UNL1        0.2071
     22 C           7.1217   41.4580   16.2392 C.3     1  UNL1        0.0040
     23 C           8.4901   40.8894   15.9181 C.3     1  UNL1        0.0474
     24 O          11.4080   39.7176    9.5796 O.3     1  UNL1       -0.4601
     25 C          10.9766   38.9403    8.4711 C.3     1  UNL1        0.2071
     26 C          11.2478   39.6858    7.1779 C.3     1  UNL1        0.0474
     27 C          10.2003   39.3318    6.1404 C.3     1  UNL1        0.0040
@<TRIPOS>UNITY_ATOM_ATTR
17 1
charge -1
19 1
charge 1
@<TRIPOS>BOND
     1    22    23    1
     2    23    21    1
     3    21    20    1
     4     1    20    1
     5     1     6   ar
     6     2     3   ar
     7     3    24    1
     8    25    24    1
     9    25    26    1
    10    26    27    1
    11     4     5   ar
    12     4     9    1
    13     7    11    1
    14    12    13   ar
    15    14    15   ar
    16    14    19    1
    17    16    11   ar
    18     9     7   am
    19    19    17    1
    20     1     2   ar
    21     3     5   ar
    22     4     6   ar
    23     7     8    2
    24    11    12   ar
    25    13    14   ar
    26    15    16   ar
    27    19    18    2
    28     9    10    1
@<TRIPOS>MOLECULE
MolPort-019-771-773 CSSS20538596534 PubChem-56694138 ZINC000005708151 ZINC05708151
 27 28 0 0 0
SMALL
GASTEIGER

@<TRIPOS>ATOM
      1 C          13.6627   42.2664    7.0839 C.ar    1  UNL1        0.2320
      2 C          14.2855   41.4263    8.0147 C.ar    1  UNL1        0.1154
      3 C          13.5077   40.8335    9.0069 C.ar    1  UNL1        0.2320
      4 C          11.5744   41.8981    8.1421 C.ar    1  UNL1        0.2280
      5 N          12.1702   41.0800    9.0514 N.ar    1  UNL1       -0.1784
      6 N          12.3236   42.4816    7.1700 N.ar    1  UNL1       -0.1784
      7 C           9.4875   42.9214    9.1970 C.2     1  UNL1        0.2516
      8 O          10.1312   43.4393   10.1502 O.2     1  UNL1       -0.2697
      9 N          10.1667   42.1564    8.1909 N.am    1  UNL1       -0.2503
     10 H           9.6157   41.7750    7.4696 H       1  UNL1        0.1580
     11 C           8.0275   43.1033    9.1160 C.ar    1  UNL1        0.0541
     12 C           7.1613   42.1504    9.6707 C.ar    1  UNL1        0.0108
     13 C           5.7768   42.3237    9.5936 C.ar    1  UNL1        0.0754
     14 C           5.2375   43.4532    8.9602 C.ar    1  UNL1        0.2901
     15 C           6.1036   44.4054    8.4059 C.ar    1  UNL1        0.0754
     16 C           7.4881   44.2316    8.4833 C.ar    1  UNL1        0.0108
     17 O           3.2949   44.8112    8.3911 O.co2   1  UNL1       -0.5760
     18 O           3.0395   42.7308    9.2478 O.2     1  UNL1        0.0415
     19 N           3.8175   43.6351    8.8785 N.pl3   1  UNL1        0.0809
     20 O          14.3872   42.8901    6.0642 O.3     1  UNL1       -0.4601
     21 C          14.8923   44.2153    6.1784 C.3     1  UNL1        0.2071
     22 C          16.9642   44.0544    7.5468 C.3     1  UNL1        0.0040
     23 C          16.4093   44.1985    6.1432 C.3     1  UNL1        0.0474
     24 O          14.1138   39.9941    9.9418 O.3     1  UNL1       -0.4601
     25 C          13.4715   39.6335   11.1570 C.3     1  UNL1        0.2071
     26 C          14.3424   38.6667   11.9369 C.3     1  UNL1        0.0474
     27 C          14.0283   37.2388   11.5351 C.3     1  UNL1        0.0040
@<TRIPOS>UNITY_ATOM_ATTR
17 1
charge -1
19 1
charge 1
@<TRIPOS>BOND
     1    22    23    1
     2    23    21    1
     3    21    20    1
     4     1    20    1
     5     1     6   ar
     6     2     3   ar
     7     3    24    1
     8    25    24    1
     9    25    26    1
    10    26    27    1
    11     4     5   ar
    12     4     9    1
    13     7    11    1
    14    12    13   ar
    15    14    15   ar
    16    14    19    1
    17    16    11   ar
    18     9     7   am
    19    19    17    1
    20     1     2   ar
    21     3     5   ar
    22     4     6   ar
    23     7     8    2
    24    11    12   ar
    25    13    14   ar
    26    15    16   ar
    27    19    18    2
    28     9    10    1
@<TRIPOS>MOLECULE
MolPort-019-771-773 CSSS20538596534 PubChem-56694138 ZINC000005708151 ZINC05708151
 27 28 0 0 0
SMALL
GASTEIGER

@<TRIPOS>ATOM
      1 C          13.0476   42.5621    7.5457 C.ar    1  UNL1        0.2320
      2 C          11.8017   42.4823    8.1793 C.ar    1  UNL1        0.1154
      3 C          11.5248   41.3722    8.9742 C.ar    1  UNL1        0.2320
      4 C          13.6701   40.4832    8.4982 C.ar    1  UNL1        0.2280
      5 N          12.4622   40.3963    9.1182 N.ar    1  UNL1       -0.1784
      6 N          13.9507   41.5618    7.7205 N.ar    1  UNL1       -0.1784
      7 C          15.1821   38.9754    9.8964 C.2     1  UNL1        0.2516
      8 O          14.7831   39.4616   10.9898 O.2     1  UNL1       -0.2697
      9 N          14.6551   39.4550    8.6510 N.am    1  UNL1       -0.2503
     10 H          15.0016   39.0402    7.8282 H       1  UNL1        0.1580
     11 C          16.1969   37.9069    9.8980 C.ar    1  UNL1        0.0541
     12 C          15.9909   36.7308    9.1631 C.ar    1  UNL1        0.0108
     13 C          16.9539   35.7180    9.1650 C.ar    1  UNL1        0.0754
     14 C          18.1378   35.8665    9.9025 C.ar    1  UNL1        0.2901
     15 C          18.3434   37.0422   10.6370 C.ar    1  UNL1        0.0754
     16 C          17.3801   38.0547   10.6347 C.ar    1  UNL1        0.0108
     17 O          19.6522   34.3637    8.7236 O.co2   1  UNL1       -0.5760
     18 O          19.5274   34.3386   10.9842 O.2     1  UNL1        0.0415
     19 N          19.1286   34.8298    9.9077 N.pl3   1  UNL1        0.0809
     20 O          13.3864   43.6500    6.7362 O.3     1  UNL1       -0.4601
     21 C          14.4399   43.6005    5.7813 C.3     1  UNL1        0.2071
     22 C          16.5393   44.0105    7.0523 C.3     1  UNL1        0.0040
     23 C          15.5051   44.6239    6.1287 C.3     1  UNL1        0.0474
     24 O          10.2877   41.2780    9.6118 O.3     1  UNL1       -0.4601
     25 C          10.1676   40.8499   10.9614 C.3     1  UNL1        0.2071
     26 C           9.0606   41.6223   11.6540 C.3     1  UNL1        0.0474
     27 C           8.8023   41.0443   13.0317 C.3     1  UNL1        0.0040
@<TRIPOS>UNITY_ATOM_ATTR
17 1
charge -1
19 1
charge 1
@<TRIPOS>BOND
     1    22    23    1
     2    23    21    1
     3    21    20    1
     4     1    20    1
     5     1     6   ar
     6     2     3   ar
     7     3    24    1
     8    25    24    1
     9    25    26    1
    10    26    27    1
    11     4     5   ar
    12     4     9    1
    13     7    11    1
    14    12    13   ar
    15    14    15   ar
    16    14    19    1
    17    16    11   ar
    18     9     7   am
    19    19    17    1
    20     1     2   ar
    21     3     5   ar
    22     4     6   ar
    23     7     8    2
    24    11    12   ar
    25    13    14   ar
    26    15    16   ar
    27    19    18    2
    28     9    10    1
@<TRIPOS>MOLECULE
MolPort-019-771-773 CSSS20538596534 PubChem-56694138 ZINC000005708151 ZINC05708151
 27 28 0 0 0
SMALL
GASTEIGER

@<TRIPOS>ATOM
      1 C          13.3036   40.4505    8.9602 C.ar    1  UNL1        0.2320
      2 C          14.1858   41.1257    8.1081 C.ar    1  UNL1        0.1154
      3 C          13.6820   42.1247    7.2781 C.ar    1  UNL1        0.2320
      4 C          11.5053   41.7601    8.1432 C.ar    1  UNL1        0.2280
      5 N          12.3545   42.4221    7.3115 N.ar    1  UNL1       -0.1784
      6 N          11.9862   40.7839    8.9572 N.ar    1  UNL1       -0.1784
      7 C           9.4265   42.7557    9.2396 C.2     1  UNL1        0.2516
      8 O          10.0568   43.1375   10.2633 O.2     1  UNL1       -0.2697
      9 N          10.1086   42.0747    8.1767 N.am    1  UNL1       -0.2503
     10 H           9.5683   41.7991    7.4013 H       1  UNL1        0.1580
     11 C           7.9790   43.0109    9.1343 C.ar    1  UNL1        0.0541
     12 C           7.5040   44.1267    8.4307 C.ar    1  UNL1        0.0108
     13 C           6.1312   44.3681    8.3312 C.ar    1  UNL1        0.0754
     14 C           5.2123   43.4966    8.9343 C.ar    1  UNL1        0.2901
     15 C           5.6874   42.3813    9.6375 C.ar    1  UNL1        0.0754
     16 C           7.0605   42.1404    9.7368 C.ar    1  UNL1        0.0108
     17 O           2.9021   42.7867    9.2514 O.co2   1  UNL1       -0.5760
     18 O           3.3761   44.8180    8.3706 O.2     1  UNL1        0.0415
     19 N           3.8026   43.7402    8.8350 N.pl3   1  UNL1        0.0809
     20 O          13.7470   39.4395    9.8174 O.3     1  UNL1       -0.4601
     21 C          13.5596   39.4881   11.2270 C.3     1  UNL1        0.2071
     22 C          14.4514   37.2094   11.6778 C.3     1  UNL1        0.0040
     23 C          14.6478   38.6926   11.9240 C.3     1  UNL1        0.0474
     24 O          14.5484   42.8062    6.4233 O.3     1  UNL1       -0.4601
     25 C          14.1640   44.0027    5.7600 C.3     1  UNL1        0.2071
     26 C          15.2732   45.0325    5.8637 C.3     1  UNL1        0.0474
     27 C          16.5557   44.3743    6.3340 C.3     1  UNL1        0.0040
@<TRIPOS>UNITY_ATOM_ATTR
17 1
charge -1
19 1
charge 1
@<TRIPOS>BOND
     1    22    23    1
     2    23    21    1
     3    21    20    1
     4     1    20    1
     5     1     6   ar
     6     2     3   ar
     7     3    24    1
     8    25    24    1
     9    25    26    1
    10    26    27    1
    11     4     5   ar
    12     4     9    1
    13     7    11    1
    14    12    13   ar
    15    14    15   ar
    16    14    19    1
    17    16    11   ar
    18     9     7   am
    19    19    17    1
    20     1     2   ar
    21     3     5   ar
    22     4     6   ar
    23     7     8    2
    24    11    12   ar
    25    13    14   ar
    26    15    16   ar
    27    19    18    2
    28     9    10    1
@<TRIPOS>MOLECULE
MolPort-019-771-773 CSSS20538596534 PubChem-56694138 ZINC000005708151 ZINC05708151
 27 28 0 0 0
SMALL
GASTEIGER

@<TRIPOS>ATOM
      1 C          13.5590   42.5357    7.1146 C.ar    1  UNL1        0.2320
      2 C          12.1919   42.2854    6.9454 C.ar    1  UNL1        0.1154
      3 C          11.6684   41.0829    7.4154 C.ar    1  UNL1        0.2320
      4 C          13.8155   40.4365    8.1840 C.ar    1  UNL1        0.2280
      5 N          12.4883   40.1837    8.0244 N.ar    1  UNL1       -0.1784
      6 N          14.3368   41.6063    7.7294 N.ar    1  UNL1       -0.1784
      7 C          15.9291   39.7863    9.4587 C.2     1  UNL1        0.2516
      8 O          16.3664   40.9691    9.4877 O.2     1  UNL1       -0.2697
      9 N          14.6766   39.4887    8.8251 N.am    1  UNL1       -0.2503
     10 H          14.3830   38.5490    8.8318 H       1  UNL1        0.1580
     11 C          16.7102   38.7022   10.0801 C.ar    1  UNL1        0.0541
     12 C          17.9397   38.3091    9.5328 C.ar    1  UNL1        0.0108
     13 C          18.6799   37.2810   10.1227 C.ar    1  UNL1        0.0754
     14 C          18.2011   36.6302   11.2694 C.ar    1  UNL1        0.2901
     15 C          16.9721   37.0233   11.8161 C.ar    1  UNL1        0.0754
     16 C          16.2322   38.0516   11.2258 C.ar    1  UNL1        0.0108
     17 O          19.6519   34.6789   11.0979 O.co2   1  UNL1       -0.5760
     18 O          18.9937   35.4552   13.1205 O.2     1  UNL1        0.0415
     19 N          18.9570   35.5745   11.8781 N.pl3   1  UNL1        0.0809
     20 O          14.1445   43.7231    6.6662 O.3     1  UNL1       -0.4601
     21 C          15.5157   44.0350    6.8828 C.3     1  UNL1        0.2071
     22 C          17.7450   43.7957    5.8041 C.3     1  UNL1        0.0040
     23 C          16.2658   44.0257    5.5638 C.3     1  UNL1        0.0474
     24 O          10.3082   40.8188    7.2539 O.3     1  UNL1       -0.4601
     25 C           9.8326   39.8757    6.3033 C.3     1  UNL1        0.2071
     26 C           8.6518   39.1138    6.8747 C.3     1  UNL1        0.0474
     27 C           7.3516   39.7644    6.4442 C.3     1  UNL1        0.0040
@<TRIPOS>UNITY_ATOM_ATTR
17 1
charge -1
19 1
charge 1
@<TRIPOS>BOND
     1    22    23    1
     2    23    21    1
     3    21    20    1
     4     1    20    1
     5     1     6   ar
     6     2     3   ar
     7     3    24    1
     8    25    24    1
     9    25    26    1
    10    26    27    1
    11     4     5   ar
    12     4     9    1
    13     7    11    1
    14    12    13   ar
    15    14    15   ar
    16    14    19    1
    17    16    11   ar
    18     9     7   am
    19    19    17    1
    20     1     2   ar
    21     3     5   ar
    22     4     6   ar
    23     7     8    2
    24    11    12   ar
    25    13    14   ar
    26    15    16   ar
    27    19    18    2
    28     9    10    1
@<TRIPOS>MOLECULE
MolPort-019-771-773 CSSS20538596534 PubChem-56694138 ZINC000005708151 ZINC05708151
 27 28 0 0 0
SMALL
GASTEIGER

@<TRIPOS>ATOM
      1 C           8.2216   39.9095    6.2983 C.ar    1  UNL1        0.2320
      2 C           7.1546   40.8150    6.2575 C.ar    1  UNL1        0.1154
      3 C           7.4348   42.1756    6.1512 C.ar    1  UNL1        0.2320
      4 C           9.7582   41.7059    6.1300 C.ar    1  UNL1        0.2280
      5 N           8.7282   42.5939    6.0895 N.ar    1  UNL1       -0.1784
      6 N           9.4962   40.3764    6.2334 N.ar    1  UNL1       -0.1784
      7 C          12.0987   42.0056    7.1032 C.2     1  UNL1        0.2516
      8 O          11.7981   41.4494    8.1947 O.2     1  UNL1       -0.2697
      9 N          11.1186   42.1483    6.0649 N.am    1  UNL1       -0.2503
     10 H          11.4072   42.5898    5.2337 H       1  UNL1        0.1580
     11 C          13.4663   42.5123    6.8925 C.ar    1  UNL1        0.0541
     12 C          14.5283   42.0360    7.6742 C.ar    1  UNL1        0.0108
     13 C          15.8250   42.5170    7.4738 C.ar    1  UNL1        0.0754
     14 C          16.0790   43.4821    6.4881 C.ar    1  UNL1        0.2901
     15 C          15.0172   43.9579    5.7070 C.ar    1  UNL1        0.0754
     16 C          13.7206   43.4766    5.9078 C.ar    1  UNL1        0.0108
     17 O          18.2163   44.2732    7.3529 O.co2   1  UNL1       -0.5760
     18 O          17.8467   44.1499    5.1225 O.2     1  UNL1        0.0415
     19 N          17.4079   43.9788    6.2790 N.pl3   1  UNL1        0.0809
     20 O           8.0066   38.5324    6.4033 O.3     1  UNL1       -0.4601
     21 C           8.7196   37.7095    7.3190 C.3     1  UNL1        0.2071
     22 C          10.4859   37.7575    9.0708 C.3     1  UNL1        0.0040
     23 C           9.9459   38.4425    7.8306 C.3     1  UNL1        0.0474
     24 O           6.3825   43.0902    6.1097 O.3     1  UNL1       -0.4601
     25 C           5.7415   43.5538    7.2902 C.3     1  UNL1        0.2071
     26 C           6.6882   43.4462    8.4707 C.3     1  UNL1        0.0474
     27 C           6.1208   42.5010    9.5118 C.3     1  UNL1        0.0040
@<TRIPOS>UNITY_ATOM_ATTR
17 1
charge -1
19 1
charge 1
@<TRIPOS>BOND
     1    22    23    1
     2    23    21    1
     3    21    20    1
     4     1    20    1
     5     1     6   ar
     6     2     3   ar
     7     3    24    1
     8    25    24    1
     9    25    26    1
    10    26    27    1
    11     4     5   ar
    12     4     9    1
    13     7    11    1
    14    12    13   ar
    15    14    15   ar
    16    14    19    1
    17    16    11   ar
    18     9     7   am
    19    19    17    1
    20     1     2   ar
    21     3     5   ar
    22     4     6   ar
    23     7     8    2
    24    11    12   ar
    25    13    14   ar
    26    15    16   ar
    27    19    18    2
    28     9    10    1
@<TRIPOS>MOLECULE
MolPort-019-771-773 CSSS20538596534 PubChem-56694138 ZINC000005708151 ZINC05708151
 27 28 0 0 0
SMALL
GASTEIGER

@<TRIPOS>ATOM
      1 C           7.8553   42.4926    8.6408 C.ar    1  UNL1        0.2320
      2 C           6.7931   42.4297    9.5507 C.ar    1  UNL1        0.1154
      3 C           6.9836   41.7591   10.7569 C.ar    1  UNL1        0.2320
      4 C           9.2134   41.2504   10.1338 C.ar    1  UNL1        0.2280
      5 N           8.1873   41.1838   11.0247 N.ar    1  UNL1       -0.1784
      6 N           9.0385   41.9022    8.9542 N.ar    1  UNL1       -0.1784
      7 C          11.7422   41.0366    9.8608 C.2     1  UNL1        0.2516
      8 O          11.8107   41.9940    9.0424 O.2     1  UNL1       -0.2697
      9 N          10.4794   40.6441   10.4177 N.am    1  UNL1       -0.2503
     10 H          10.4836   39.8908   11.0514 H       1  UNL1        0.1580
     11 C          12.9678   40.3160   10.2480 C.ar    1  UNL1        0.0541
     12 C          13.0192   39.5978   11.4510 C.ar    1  UNL1        0.0108
     13 C          14.1819   38.9145   11.8174 C.ar    1  UNL1        0.0754
     14 C          15.3112   38.9395   10.9858 C.ar    1  UNL1        0.2901
     15 C          15.2594   39.6575    9.7834 C.ar    1  UNL1        0.0754
     16 C          14.0965   40.3407    9.4173 C.ar    1  UNL1        0.0108
     17 O          17.7367   38.7006   10.9477 O.co2   1  UNL1       -0.5760
     18 O          16.4459   37.2069   12.0564 O.2     1  UNL1        0.0415
     19 N          16.5065   38.2401   11.3577 N.pl3   1  UNL1        0.0809
     20 O           7.7279   43.1511    7.4146 O.3     1  UNL1       -0.4601
     21 C           6.9025   42.6658    6.3622 C.3     1  UNL1        0.2071
     22 C           6.4240   40.2279    6.4981 C.3     1  UNL1        0.0040
     23 C           7.3594   41.2821    5.9390 C.3     1  UNL1        0.0474
     24 O           5.9347   41.6877   11.6737 O.3     1  UNL1       -0.4601
     25 C           4.7683   40.9155   11.4237 C.3     1  UNL1        0.2071
     26 C           3.5957   41.8298   11.1225 C.3     1  UNL1        0.0474
     27 C           3.0599   41.5523    9.7315 C.3     1  UNL1        0.0040
@<TRIPOS>UNITY_ATOM_ATTR
17 1
charge -1
19 1
charge 1
@<TRIPOS>BOND
     1    22    23    1
     2    23    21    1
     3    21    20    1
     4     1    20    1
     5     1     6   ar
     6     2     3   ar
     7     3    24    1
     8    25    24    1
     9    25    26    1
    10    26    27    1
    11     4     5   ar
    12     4     9    1
    13     7    11    1
    14    12    13   ar
    15    14    15   ar
    16    14    19    1
    17    16    11   ar
    18     9     7   am
    19    19    17    1
    20     1     2   ar
    21     3     5   ar
    22     4     6   ar
    23     7     8    2
    24    11    12   ar
    25    13    14   ar
    26    15    16   ar
    27    19    18    2
    28     9    10    1
@<TRIPOS>MOLECULE
MolPort-019-771-773 CSSS20538596534 PubChem-56694138 ZINC000005708151 ZINC05708151
 27 28 0 0 0
SMALL
GASTEIGER

@<TRIPOS>ATOM
      1 C          10.6417   37.5805    9.0814 C.ar    1  UNL1        0.2320
      2 C           9.4497   37.6575    8.3510 C.ar    1  UNL1        0.1154
      3 C           9.3586   38.5835    7.3141 C.ar    1  UNL1        0.2320
      4 C          11.5742   39.3049    7.7499 C.ar    1  UNL1        0.2280
      5 N          10.4201   39.3875    7.0340 N.ar    1  UNL1       -0.1784
      6 N          11.6739   38.4051    8.7633 N.ar    1  UNL1       -0.1784
      7 C          13.5161   40.8209    8.4173 C.2     1  UNL1        0.2516
      8 O          13.2916   40.6917    9.6518 O.2     1  UNL1       -0.2697
      9 N          12.6901   40.1521    7.4534 N.am    1  UNL1       -0.2503
     10 H          12.9102   40.2877    6.5035 H       1  UNL1        0.1580
     11 C          14.6349   41.6648    7.9617 C.ar    1  UNL1        0.0541
     12 C          15.8896   41.5759    8.5810 C.ar    1  UNL1        0.0108
     13 C          16.9501   42.3765    8.1482 C.ar    1  UNL1        0.0754
     14 C          16.7714   43.2785    7.0890 C.ar    1  UNL1        0.2901
     15 C          15.5171   43.3672    6.4702 C.ar    1  UNL1        0.0754
     16 C          14.4569   42.5664    6.9034 C.ar    1  UNL1        0.0108
     17 O          18.8243   44.5175    7.5274 O.co2   1  UNL1       -0.5760
     18 O          17.9365   44.4521    5.4455 O.2     1  UNL1        0.0415
     19 N          17.8566   44.1023    6.6416 N.pl3   1  UNL1        0.0809
     20 O          10.7962   36.6721   10.1324 O.3     1  UNL1       -0.4601
     21 C          12.0413   36.4552   10.7857 C.3     1  UNL1        0.2071
     22 C          13.9754   35.6244    9.4591 C.3     1  UNL1        0.0040
     23 C          12.7218   35.2257   10.2130 C.3     1  UNL1        0.0474
     24 O           8.1775   38.6724    6.5773 O.3     1  UNL1       -0.4601
     25 C           7.4837   39.9016    6.4134 C.3     1  UNL1        0.2071
     26 C           7.3474   40.6027    7.7519 C.3     1  UNL1        0.0474
     27 C           6.4744   41.8344    7.6107 C.3     1  UNL1        0.0040
@<TRIPOS>UNITY_ATOM_ATTR
17 1
charge -1
19 1
charge 1
@<TRIPOS>BOND
     1    22    23    1
     2    23    21    1
     3    21    20    1
     4     1    20    1
     5     1     6   ar
     6     2     3   ar
     7     3    24    1
     8    25    24    1
     9    25    26    1
    10    26    27    1
    11     4     5   ar
    12     4     9    1
    13     7    11    1
    14    12    13   ar
    15    14    15   ar
    16    14    19    1
    17    16    11   ar
    18     9     7   am
    19    19    17    1
    20     1     2   ar
    21     3     5   ar
    22     4     6   ar
    23     7     8    2
    24    11    12   ar
    25    13    14   ar
    26    15    16   ar
    27    19    18    2
    28     9    10    1
@<TRIPOS>MOLECULE
MolPort-019-771-773 CSSS20538596534 PubChem-56694138 ZINC000005708151 ZINC05708151
 27 28 0 0 0
SMALL
GASTEIGER

@<TRIPOS>ATOM
      1 C          12.6710   42.0910    8.1191 C.ar    1  UNL1        0.2320
      2 C          11.6730   42.3737    9.0595 C.ar    1  UNL1        0.1154
      3 C          11.2869   41.3720    9.9475 C.ar    1  UNL1        0.2320
      4 C          12.8508   39.8852    8.9666 C.ar    1  UNL1        0.2280
      5 N          11.8819   40.1499    9.8842 N.ar    1  UNL1       -0.1784
      6 N          13.2352   40.8550    8.0956 N.ar    1  UNL1       -0.1784
      7 C          14.8786   38.3373    9.0513 C.2     1  UNL1        0.2516
      8 O          15.6865   39.2831    9.2608 O.2     1  UNL1       -0.2697
      9 N          13.4757   38.5982    8.9017 N.am    1  UNL1       -0.2503
     10 H          12.8903   37.8233    8.7400 H       1  UNL1        0.1580
     11 C          15.3792   36.9544    8.9596 C.ar    1  UNL1        0.0541
     12 C          16.7559   36.6930    9.0049 C.ar    1  UNL1        0.0108
     13 C          17.2298   35.3813    8.9180 C.ar    1  UNL1        0.0754
     14 C          16.3334   34.3107    8.7842 C.ar    1  UNL1        0.2901
     15 C          14.9574   34.5723    8.7389 C.ar    1  UNL1        0.0754
     16 C          14.4839   35.8844    8.8259 C.ar    1  UNL1        0.0108
     17 O          17.8690   32.5486    9.4762 O.co2   1  UNL1       -0.5760
     18 O          16.2853   32.1509    7.9075 O.2     1  UNL1        0.0415
     19 N          16.8150   32.9630    8.6945 N.pl3   1  UNL1        0.0809
     20 O          13.1031   43.0531    7.2019 O.3     1  UNL1       -0.4601
     21 C          14.2383   42.8641    6.3654 C.3     1  UNL1        0.2071
     22 C          16.4238   43.9625    5.9090 C.3     1  UNL1        0.0040
     23 C          15.4584   43.5159    6.9895 C.3     1  UNL1        0.0474
     24 O          10.2936   41.6382   10.8900 O.3     1  UNL1       -0.4601
     25 C           9.2594   42.5819   10.6471 C.3     1  UNL1        0.2071
     26 C           8.0660   41.8918   10.0135 C.3     1  UNL1        0.0474
     27 C           7.3935   42.8179    9.0190 C.3     1  UNL1        0.0040
@<TRIPOS>UNITY_ATOM_ATTR
17 1
charge -1
19 1
charge 1
@<TRIPOS>BOND
     1    22    23    1
     2    23    21    1
     3    21    20    1
     4     1    20    1
     5     1     6   ar
     6     2     3   ar
     7     3    24    1
     8    25    24    1
     9    25    26    1
    10    26    27    1
    11     4     5   ar
    12     4     9    1
    13     7    11    1
    14    12    13   ar
    15    14    15   ar
    16    14    19    1
    17    16    11   ar
    18     9     7   am
    19    19    17    1
    20     1     2   ar
    21     3     5   ar
    22     4     6   ar
    23     7     8    2
    24    11    12   ar
    25    13    14   ar
    26    15    16   ar
    27    19    18    2
    28     9    10    1
@<TRIPOS>MOLECULE
MolPort-019-771-773 CSSS20538596534 PubChem-56694138 ZINC000005708151 ZINC05708151
 27 28 0 0 0
SMALL
GASTEIGER

@<TRIPOS>ATOM
      1 C          12.8731   42.2307    7.6181 C.ar    1  UNL1        0.2320
      2 C          11.6826   42.5741    8.2701 C.ar    1  UNL1        0.1154
      3 C          10.9414   41.5671    8.8845 C.ar    1  UNL1        0.2320
      4 C          12.5433   39.9581    8.2034 C.ar    1  UNL1        0.2280
      5 N          11.3850   40.2814    8.8396 N.ar    1  UNL1       -0.1784
      6 N          13.2742   40.9325    7.6007 N.ar    1  UNL1       -0.1784
      7 C          13.6398   37.8962    9.2335 C.2     1  UNL1        0.2516
      8 O          13.8313   38.4603   10.3453 O.2     1  UNL1       -0.2697
      9 N          13.0083   38.6044    8.1572 N.am    1  UNL1       -0.2503
     10 H          12.8835   38.1160    7.3115 H       1  UNL1        0.1580
     11 C          14.0677   36.4996    9.0385 C.ar    1  UNL1        0.0541
     12 C          13.3568   35.4491    9.6358 C.ar    1  UNL1        0.0108
     13 C          13.7631   34.1250    9.4503 C.ar    1  UNL1        0.0754
     14 C          14.8872   33.8315    8.6642 C.ar    1  UNL1        0.2901
     15 C          15.5975   34.8818    8.0673 C.ar    1  UNL1        0.0754
     16 C          15.1908   36.2059    8.2531 C.ar    1  UNL1        0.0108
     17 O          14.3892   31.5011    8.1518 O.co2   1  UNL1       -0.5760
     18 O          16.5106   32.1598    8.5904 O.2     1  UNL1        0.0415
     19 N          15.3081   32.4743    8.4712 N.pl3   1  UNL1        0.0809
     20 O          13.6619   43.1945    6.9837 O.3     1  UNL1       -0.4601
     21 C          15.0734   43.0707    6.8545 C.3     1  UNL1        0.2071
     22 C          17.1109   44.0217    5.7892 C.3     1  UNL1        0.0040
     23 C          15.6141   44.1801    5.9716 C.3     1  UNL1        0.0474
     24 O           9.7529   41.8933    9.5379 O.3     1  UNL1       -0.4601
     25 C           9.7412   42.4451   10.8473 C.3     1  UNL1        0.2071
     26 C           9.8541   41.3375   11.8779 C.3     1  UNL1        0.0474
     27 C           8.5622   41.2199   12.6630 C.3     1  UNL1        0.0040
@<TRIPOS>UNITY_ATOM_ATTR
17 1
charge -1
19 1
charge 1
@<TRIPOS>BOND
     1    22    23    1
     2    23    21    1
     3    21    20    1
     4     1    20    1
     5     1     6   ar
     6     2     3   ar
     7     3    24    1
     8    25    24    1
     9    25    26    1
    10    26    27    1
    11     4     5   ar
    12     4     9    1
    13     7    11    1
    14    12    13   ar
    15    14    15   ar
    16    14    19    1
    17    16    11   ar
    18     9     7   am
    19    19    17    1
    20     1     2   ar
    21     3     5   ar
    22     4     6   ar
    23     7     8    2
    24    11    12   ar
    25    13    14   ar
    26    15    16   ar
    27    19    18    2
    28     9    10    1
