@<TRIPOS>MOLECULE
MolPort-002-865-759 5681527 CHEMBL1549343 CSSS00138423839 MCULE-5667514739 PubChem-4303516 ZINC000005681527 ZINC05681527
 28 30 0 0 0
SMALL
GASTEIGER

@<TRIPOS>ATOM
      1 C           7.8150   41.4634    6.7025 C.2     1  UNL1        0.2739
      2 C          11.7118   41.4253    6.6696 C.ar    1  UNL1        0.1866
      3 C           9.9100   40.7847    5.4960 C.ar    1  UNL1        0.3638
      4 O           7.0904   41.4722    5.6697 O.2     1  UNL1       -0.2660
      5 O           9.3072   40.2672    4.5184 O.2     1  UNL1       -0.2434
      6 N           9.2415   41.3231    6.5582 N.ar    1  UNL1       -0.1919
      7 N          11.2769   40.8241    5.5393 N.ar    1  UNL1       -0.1687
      8 S          10.4121   41.9008    7.5915 S.2     1  UNL1        0.0367
      9 C           5.1541   41.9938    9.3466 C.ar    1  UNL1        0.0716
     10 C           5.8939   41.8005   10.5214 C.ar    1  UNL1        0.0039
     11 C           7.2564   41.5019   10.4544 C.ar    1  UNL1        0.0001
     12 C           7.8881   41.3980    9.2131 C.ar    1  UNL1        0.0048
     13 C           7.1679   41.5989    8.0271 C.ar    1  UNL1        0.0571
     14 C           5.7971   41.8869    8.1058 C.ar    1  UNL1        0.0086
     15 F           2.9668   41.2455    8.8882 F       1  UNL1       -0.1659
     16 F           3.3075   42.5263   10.7106 F       1  UNL1       -0.1659
     17 F           3.3952   43.4425    8.6572 F       1  UNL1       -0.1659
     18 C           3.6874   42.3099    9.3986 C.3     1  UNL1        0.4186
     19 C          13.8427   42.8054    6.6923 C.2     1  UNL1        0.2509
     20 O          13.3085   43.7546    6.0561 O.2     1  UNL1       -0.2698
     21 N          13.0842   41.6327    7.0153 N.am    1  UNL1       -0.2594
     22 H          13.5419   40.9166    7.5122 H       1  UNL1        0.1571
     23 C          15.2538   42.9022    7.1056 C.ar    1  UNL1        0.0537
     24 C          15.7723   42.0235    8.0681 C.ar    1  UNL1        0.0045
     25 C          17.1109   42.1147    8.4608 C.ar    1  UNL1        0.0001
     26 C          17.9410   43.0852    7.8938 C.ar    1  UNL1        0.0000
     27 C          17.4331   43.9649    6.9341 C.ar    1  UNL1        0.0001
     28 C          16.0943   43.8737    6.5414 C.ar    1  UNL1        0.0045
@<TRIPOS>BOND
     1    18    15    1
     2    18    16    1
     3    18    17    1
     4    18     9    1
     5    10    11   ar
     6    12    13   ar
     7    13     1    1
     8    14     9   ar
     9     1     6   am
    10     2     8   ar
    11     2    21    1
    12    19    23    1
    13    24    25   ar
    14    26    27   ar
    15    28    23   ar
    16     3     7   ar
    17     3     6   ar
    18     6     8   ar
    19    21    19   am
    20     9    10   ar
    21    11    12   ar
    22    13    14   ar
    23     1     4    2
    24     2     7   ar
    25    19    20    2
    26    23    24   ar
    27    25    26   ar
    28    27    28   ar
    29     3     5    2
    30    21    22    1
@<TRIPOS>MOLECULE
MolPort-002-865-759 5681527 CHEMBL1549343 CSSS00138423839 MCULE-5667514739 PubChem-4303516 ZINC000005681527 ZINC05681527
 28 30 0 0 0
SMALL
GASTEIGER

@<TRIPOS>ATOM
      1 C          12.9066   40.7612    9.4571 C.2     1  UNL1        0.2739
      2 C           9.2847   42.0674   10.0602 C.ar    1  UNL1        0.1866
      3 C          11.3244   42.7096    9.3809 C.ar    1  UNL1        0.3638
      4 O          13.7046   41.2330    8.6014 O.2     1  UNL1       -0.2660
      5 O          12.1794   43.5242    8.9424 O.2     1  UNL1       -0.2434
      6 N          11.6392   41.4124    9.6695 N.ar    1  UNL1       -0.1919
      7 N          10.0296   43.0958    9.5955 N.ar    1  UNL1       -0.1687
      8 S          10.2269   40.7039   10.1942 S.2     1  UNL1        0.0367
      9 C          12.9789   37.1842   10.7032 C.ar    1  UNL1        0.0716
     10 C          14.0739   37.2215   11.5775 C.ar    1  UNL1        0.0039
     11 C          14.7854   38.4084   11.7647 C.ar    1  UNL1        0.0001
     12 C          14.4047   39.5657   11.0816 C.ar    1  UNL1        0.0048
     13 C          13.3055   39.5515   10.2115 C.ar    1  UNL1        0.0571
     14 C          12.6051   38.3507   10.0221 C.ar    1  UNL1        0.0086
     15 F          11.7982   35.4076   11.7049 F       1  UNL1       -0.1659
     16 F          11.0912   36.1819    9.7103 F       1  UNL1       -0.1659
     17 F          12.9794   34.9649    9.8415 F       1  UNL1       -0.1659
     18 C          12.2055   35.9161   10.4850 C.3     1  UNL1        0.4186
     19 C           6.8399   41.5803    9.5787 C.2     1  UNL1        0.2509
     20 O           7.1079   40.9726    8.5062 O.2     1  UNL1       -0.2698
     21 N           7.8917   42.1380   10.3772 N.am    1  UNL1       -0.2594
     22 H           7.6362   42.6044   11.2058 H       1  UNL1        0.1571
     23 C           5.4385   41.7179   10.0128 C.ar    1  UNL1        0.0537
     24 C           4.4868   42.2989    9.1620 C.ar    1  UNL1        0.0045
     25 C           3.1570   42.4299    9.5730 C.ar    1  UNL1        0.0001
     26 C           2.7691   41.9807   10.8381 C.ar    1  UNL1        0.0000
     27 C           3.7106   41.4006   11.6925 C.ar    1  UNL1        0.0001
     28 C           5.0405   41.2696   11.2814 C.ar    1  UNL1        0.0045
@<TRIPOS>BOND
     1    18    15    1
     2    18    16    1
     3    18    17    1
     4    18     9    1
     5    10    11   ar
     6    12    13   ar
     7    13     1    1
     8    14     9   ar
     9     1     6   am
    10     2     8   ar
    11     2    21    1
    12    19    23    1
    13    24    25   ar
    14    26    27   ar
    15    28    23   ar
    16     3     7   ar
    17     3     6   ar
    18     6     8   ar
    19    21    19   am
    20     9    10   ar
    21    11    12   ar
    22    13    14   ar
    23     1     4    2
    24     2     7   ar
    25    19    20    2
    26    23    24   ar
    27    25    26   ar
    28    27    28   ar
    29     3     5    2
    30    21    22    1
@<TRIPOS>MOLECULE
MolPort-002-865-759 5681527 CHEMBL1549343 CSSS00138423839 MCULE-5667514739 PubChem-4303516 ZINC000005681527 ZINC05681527
 28 30 0 0 0
SMALL
GASTEIGER

@<TRIPOS>ATOM
      1 C           6.2015   42.0305    9.6680 C.2     1  UNL1        0.2739
      2 C           2.8103   41.9519   11.5867 C.ar    1  UNL1        0.1866
      3 C           3.8160   42.8077    9.7728 C.ar    1  UNL1        0.3638
      4 O           6.3154   42.1905    8.4218 O.2     1  UNL1       -0.2660
      5 O           3.8750   43.4768    8.7071 O.2     1  UNL1       -0.2434
      6 N           4.8999   42.1454   10.2746 N.ar    1  UNL1       -0.1919
      7 N           2.6515   42.7202   10.4855 N.ar    1  UNL1       -0.1687
      8 S           4.3739   41.3913   11.6626 S.2     1  UNL1        0.0367
      9 C           9.8309   41.4025   10.5545 C.ar    1  UNL1        0.0716
     10 C           9.7460   41.2223   11.9420 C.ar    1  UNL1        0.0039
     11 C           8.5105   41.3011   12.5880 C.ar    1  UNL1        0.0001
     12 C           7.3522   41.5571   11.8507 C.ar    1  UNL1        0.0048
     13 C           7.4149   41.7291   10.4608 C.ar    1  UNL1        0.0571
     14 C           8.6629   41.6594    9.8236 C.ar    1  UNL1        0.0086
     15 F          11.5577   42.5999    9.4877 F       1  UNL1       -0.1659
     16 F          12.0968   40.7672   10.6829 F       1  UNL1       -0.1659
     17 F          11.0568   40.5529    8.6989 F       1  UNL1       -0.1659
     18 C          11.1509   41.3269    9.8434 C.3     1  UNL1        0.4186
     19 C           1.1059   42.6286   13.3426 C.2     1  UNL1        0.2509
     20 O           1.3984   43.8518   13.2447 O.2     1  UNL1       -0.2698
     21 N           1.7840   41.6552   12.5378 N.am    1  UNL1       -0.2594
     22 H           1.5239   40.7121   12.6480 H       1  UNL1        0.1571
     23 C           0.0619   42.1979   14.2892 C.ar    1  UNL1        0.0537
     24 C          -0.9186   41.2770   13.8920 C.ar    1  UNL1        0.0045
     25 C          -1.9095   40.8679   14.7893 C.ar    1  UNL1        0.0001
     26 C          -1.9270   41.3766   16.0907 C.ar    1  UNL1        0.0000
     27 C          -0.9540   42.2945   16.4951 C.ar    1  UNL1        0.0001
     28 C           0.0369   42.7037   15.5977 C.ar    1  UNL1        0.0045
@<TRIPOS>BOND
     1    18    15    1
     2    18    16    1
     3    18    17    1
     4    18     9    1
     5    10    11   ar
     6    12    13   ar
     7    13     1    1
     8    14     9   ar
     9     1     6   am
    10     2     8   ar
    11     2    21    1
    12    19    23    1
    13    24    25   ar
    14    26    27   ar
    15    28    23   ar
    16     3     7   ar
    17     3     6   ar
    18     6     8   ar
    19    21    19   am
    20     9    10   ar
    21    11    12   ar
    22    13    14   ar
    23     1     4    2
    24     2     7   ar
    25    19    20    2
    26    23    24   ar
    27    25    26   ar
    28    27    28   ar
    29     3     5    2
    30    21    22    1
@<TRIPOS>MOLECULE
MolPort-002-865-759 5681527 CHEMBL1549343 CSSS00138423839 MCULE-5667514739 PubChem-4303516 ZINC000005681527 ZINC05681527
 28 30 0 0 0
SMALL
GASTEIGER

@<TRIPOS>ATOM
      1 C          11.2645   40.6026   11.7507 C.2     1  UNL1        0.2739
      2 C           7.7194   42.0399   11.0063 C.ar    1  UNL1        0.1866
      3 C           8.9525   41.0714   12.6112 C.ar    1  UNL1        0.3638
      4 O          11.8055   40.5862   12.8903 O.2     1  UNL1       -0.2660
      5 O           9.1738   40.6164   13.7648 O.2     1  UNL1       -0.2434
      6 N           9.8998   41.0474   11.6278 N.ar    1  UNL1       -0.1919
      7 N           7.7370   41.6097   12.2880 N.ar    1  UNL1       -0.1687
      8 S           9.1958   41.7562   10.2959 S.2     1  UNL1        0.0367
      9 C          13.1188   40.6924    8.4483 C.ar    1  UNL1        0.0716
     10 C          13.6112   39.3820    8.3756 C.ar    1  UNL1        0.0039
     11 C          13.3377   38.4695    9.3966 C.ar    1  UNL1        0.0001
     12 C          12.5679   38.8603   10.4946 C.ar    1  UNL1        0.0048
     13 C          12.0571   40.1630   10.5801 C.ar    1  UNL1        0.0571
     14 C          12.3478   41.0750    9.5544 C.ar    1  UNL1        0.0086
     15 F          12.6620   41.3780    6.2403 F       1  UNL1       -0.1659
     16 F          13.0651   42.9567    7.7969 F       1  UNL1       -0.1659
     17 F          14.7497   41.6810    7.0233 F       1  UNL1       -0.1659
     18 C          13.4072   41.6889    7.3631 C.3     1  UNL1        0.4186
     19 C           6.6641   43.3693    9.1181 C.2     1  UNL1        0.2509
     20 O           7.7608   43.4895    8.5065 O.2     1  UNL1       -0.2698
     21 N           6.6024   42.6580   10.3612 N.am    1  UNL1       -0.2594
     22 H           5.7257   42.5898   10.8039 H       1  UNL1        0.1571
     23 C           5.4401   43.9632    8.5521 C.ar    1  UNL1        0.0537
     24 C           4.1786   43.5705    9.0230 C.ar    1  UNL1        0.0045
     25 C           3.0168   44.1334    8.4866 C.ar    1  UNL1        0.0001
     26 C           3.1079   45.0933    7.4752 C.ar    1  UNL1        0.0000
     27 C           4.3605   45.4906    6.9999 C.ar    1  UNL1        0.0001
     28 C           5.5225   44.9276    7.5364 C.ar    1  UNL1        0.0045
@<TRIPOS>BOND
     1    18    15    1
     2    18    16    1
     3    18    17    1
     4    18     9    1
     5    10    11   ar
     6    12    13   ar
     7    13     1    1
     8    14     9   ar
     9     1     6   am
    10     2     8   ar
    11     2    21    1
    12    19    23    1
    13    24    25   ar
    14    26    27   ar
    15    28    23   ar
    16     3     7   ar
    17     3     6   ar
    18     6     8   ar
    19    21    19   am
    20     9    10   ar
    21    11    12   ar
    22    13    14   ar
    23     1     4    2
    24     2     7   ar
    25    19    20    2
    26    23    24   ar
    27    25    26   ar
    28    27    28   ar
    29     3     5    2
    30    21    22    1
@<TRIPOS>MOLECULE
MolPort-002-865-759 5681527 CHEMBL1549343 CSSS00138423839 MCULE-5667514739 PubChem-4303516 ZINC000005681527 ZINC05681527
 28 30 0 0 0
SMALL
GASTEIGER

@<TRIPOS>ATOM
      1 C          11.1993   40.5112   11.9083 C.2     1  UNL1        0.2739
      2 C           7.7054   42.0397   11.1056 C.ar    1  UNL1        0.1866
      3 C           8.9381   41.1799   12.7716 C.ar    1  UNL1        0.3638
      4 O          11.7721   40.5842   13.0300 O.2     1  UNL1       -0.2660
      5 O           9.1714   40.8346   13.9603 O.2     1  UNL1       -0.2434
      6 N           9.8540   41.0085   11.7732 N.ar    1  UNL1       -0.1919
      7 N           7.7403   41.7422   12.4242 N.ar    1  UNL1       -0.1687
      8 S           9.1455   41.6119   10.3927 S.2     1  UNL1        0.0367
      9 C          14.0606   39.3663    9.7050 C.ar    1  UNL1        0.0716
     10 C          13.3673   38.7397    8.6603 C.ar    1  UNL1        0.0039
     11 C          11.9717   38.6927    8.6700 C.ar    1  UNL1        0.0001
     12 C          11.2608   39.2744    9.7222 C.ar    1  UNL1        0.0048
     13 C          11.9357   39.9155   10.7705 C.ar    1  UNL1        0.0571
     14 C          13.3383   39.9466   10.7565 C.ar    1  UNL1        0.0086
     15 F          15.9889   40.4838    8.9388 F       1  UNL1       -0.1659
     16 F          16.0086   39.5986   11.0110 F       1  UNL1       -0.1659
     17 F          16.1060   38.2530    9.2100 F       1  UNL1       -0.1659
     18 C          15.5609   39.4218    9.7145 C.3     1  UNL1        0.4186
     19 C           6.6914   43.3637    9.1913 C.2     1  UNL1        0.2509
     20 O           7.8056   43.5056    8.6171 O.2     1  UNL1       -0.2698
     21 N           6.6003   42.6436   10.4274 N.am    1  UNL1       -0.2594
     22 H           5.7107   42.5582   10.8404 H       1  UNL1        0.1571
     23 C           5.4771   43.9411    8.5884 C.ar    1  UNL1        0.0537
     24 C           5.5787   44.8858    7.5566 C.ar    1  UNL1        0.0045
     25 C           4.4273   45.4343    6.9840 C.ar    1  UNL1        0.0001
     26 C           3.1657   45.0419    7.4390 C.ar    1  UNL1        0.0000
     27 C           3.0549   44.1013    8.4665 C.ar    1  UNL1        0.0001
     28 C           4.2065   43.5528    9.0392 C.ar    1  UNL1        0.0045
@<TRIPOS>BOND
     1    18    15    1
     2    18    16    1
     3    18    17    1
     4    18     9    1
     5    10    11   ar
     6    12    13   ar
     7    13     1    1
     8    14     9   ar
     9     1     6   am
    10     2     8   ar
    11     2    21    1
    12    19    23    1
    13    24    25   ar
    14    26    27   ar
    15    28    23   ar
    16     3     7   ar
    17     3     6   ar
    18     6     8   ar
    19    21    19   am
    20     9    10   ar
    21    11    12   ar
    22    13    14   ar
    23     1     4    2
    24     2     7   ar
    25    19    20    2
    26    23    24   ar
    27    25    26   ar
    28    27    28   ar
    29     3     5    2
    30    21    22    1
@<TRIPOS>MOLECULE
MolPort-002-865-759 5681527 CHEMBL1549343 CSSS00138423839 MCULE-5667514739 PubChem-4303516 ZINC000005681527 ZINC05681527
 28 30 0 0 0
SMALL
GASTEIGER

@<TRIPOS>ATOM
      1 C           7.9148   41.2771    6.6922 C.2     1  UNL1        0.2739
      2 C          11.8101   41.3880    6.6487 C.ar    1  UNL1        0.1866
      3 C          10.0283   40.7551    5.4409 C.ar    1  UNL1        0.3638
      4 O           7.1857   41.3236    5.6636 O.2     1  UNL1       -0.2660
      5 O           9.4410   40.2779    4.4338 O.2     1  UNL1       -0.2434
      6 N           9.3448   41.2001    6.5363 N.ar    1  UNL1       -0.1919
      7 N          11.3929   40.8432    5.4836 N.ar    1  UNL1       -0.1687
      8 S          10.4977   41.7552    7.6015 S.2     1  UNL1        0.0367
      9 C           7.4686   41.5035   10.4475 C.ar    1  UNL1        0.0716
     10 C           6.0738   41.4243   10.5622 C.ar    1  UNL1        0.0039
     11 C           5.2797   41.2937    9.4210 C.ar    1  UNL1        0.0001
     12 C           5.8751   41.2382    8.1587 C.ar    1  UNL1        0.0048
     13 C           7.2690   41.3045    8.0241 C.ar    1  UNL1        0.0571
     14 C           8.0564   41.4474    9.1764 C.ar    1  UNL1        0.0086
     15 F           9.6682   41.5847   11.2895 F       1  UNL1       -0.1659
     16 F           8.0947   42.8726   12.2607 F       1  UNL1       -0.1659
     17 F           8.0833   40.6453   12.5814 F       1  UNL1       -0.1659
     18 C           8.3381   41.6497   11.6625 C.3     1  UNL1        0.4186
     19 C          13.9014   42.8261    6.7135 C.2     1  UNL1        0.2509
     20 O          13.3424   43.7761    6.1001 O.2     1  UNL1       -0.2698
     21 N          13.1752   41.6247    7.0040 N.am    1  UNL1       -0.2594
     22 H          13.6517   40.9092    7.4838 H       1  UNL1        0.1571
     23 C          15.3082   42.9517    7.1335 C.ar    1  UNL1        0.0537
     24 C          16.1190   43.9650    6.6012 C.ar    1  UNL1        0.0045
     25 C          17.4538   44.0850    6.9990 C.ar    1  UNL1        0.0001
     26 C          17.9877   43.1925    7.9324 C.ar    1  UNL1        0.0000
     27 C          17.1874   42.1799    8.4680 C.ar    1  UNL1        0.0001
     28 C          15.8524   42.0599    8.0701 C.ar    1  UNL1        0.0045
@<TRIPOS>BOND
     1    18    15    1
     2    18    16    1
     3    18    17    1
     4    18     9    1
     5    10    11   ar
     6    12    13   ar
     7    13     1    1
     8    14     9   ar
     9     1     6   am
    10     2     8   ar
    11     2    21    1
    12    19    23    1
    13    24    25   ar
    14    26    27   ar
    15    28    23   ar
    16     3     7   ar
    17     3     6   ar
    18     6     8   ar
    19    21    19   am
    20     9    10   ar
    21    11    12   ar
    22    13    14   ar
    23     1     4    2
    24     2     7   ar
    25    19    20    2
    26    23    24   ar
    27    25    26   ar
    28    27    28   ar
    29     3     5    2
    30    21    22    1
@<TRIPOS>MOLECULE
MolPort-002-865-759 5681527 CHEMBL1549343 CSSS00138423839 MCULE-5667514739 PubChem-4303516 ZINC000005681527 ZINC05681527
 28 30 0 0 0
SMALL
GASTEIGER

@<TRIPOS>ATOM
      1 C           9.4013   40.0008    5.8499 C.2     1  UNL1        0.2739
      2 C          12.0183   37.8525    3.9202 C.ar    1  UNL1        0.1866
      3 C           9.8621   38.4729    3.9112 C.ar    1  UNL1        0.3638
      4 O           8.3969   40.5512    5.3209 O.2     1  UNL1       -0.2660
      5 O           8.6863   38.5141    3.4612 O.2     1  UNL1       -0.2434
      6 N          10.2256   39.1291    5.0525 N.ar    1  UNL1       -0.1919
      7 N          10.8357   37.7551    3.2720 N.ar    1  UNL1       -0.1687
      8 S          11.8483   38.8205    5.2615 S.2     1  UNL1        0.0367
      9 C          11.1956   40.0575    9.1861 C.ar    1  UNL1        0.0716
     10 C          10.3146   40.8282    9.9572 C.ar    1  UNL1        0.0039
     11 C           9.1372   41.3256    9.3947 C.ar    1  UNL1        0.0001
     12 C           8.8319   41.0529    8.0593 C.ar    1  UNL1        0.0048
     13 C           9.6947   40.2746    7.2749 C.ar    1  UNL1        0.0571
     14 C          10.8806   39.7898    7.8469 C.ar    1  UNL1        0.0086
     15 F          13.2880   39.0620    8.7557 F       1  UNL1       -0.1659
     16 F          13.1213   40.5241   10.4622 F       1  UNL1       -0.1659
     17 F          12.2132   38.4732   10.6429 F       1  UNL1       -0.1659
     18 C          12.4687   39.5191    9.7719 C.3     1  UNL1        0.4186
     19 C          14.1798   36.6065    4.3909 C.2     1  UNL1        0.2509
     20 O          13.9684   36.5835    5.6344 O.2     1  UNL1       -0.2698
     21 N          13.2366   37.2270    3.5075 N.am    1  UNL1       -0.2594
     22 H          13.4429   37.2222    2.5448 H       1  UNL1        0.1571
     23 C          15.4024   35.9926    3.8436 C.ar    1  UNL1        0.0537
     24 C          16.2345   36.7193    2.9794 C.ar    1  UNL1        0.0045
     25 C          17.3947   36.1378    2.4596 C.ar    1  UNL1        0.0001
     26 C          17.7314   34.8251    2.8004 C.ar    1  UNL1        0.0000
     27 C          16.9083   34.0936    3.6607 C.ar    1  UNL1        0.0001
     28 C          15.7480   34.6752    4.1805 C.ar    1  UNL1        0.0045
@<TRIPOS>BOND
     1    18    15    1
     2    18    16    1
     3    18    17    1
     4    18     9    1
     5    10    11   ar
     6    12    13   ar
     7    13     1    1
     8    14     9   ar
     9     1     6   am
    10     2     8   ar
    11     2    21    1
    12    19    23    1
    13    24    25   ar
    14    26    27   ar
    15    28    23   ar
    16     3     7   ar
    17     3     6   ar
    18     6     8   ar
    19    21    19   am
    20     9    10   ar
    21    11    12   ar
    22    13    14   ar
    23     1     4    2
    24     2     7   ar
    25    19    20    2
    26    23    24   ar
    27    25    26   ar
    28    27    28   ar
    29     3     5    2
    30    21    22    1
@<TRIPOS>MOLECULE
MolPort-002-865-759 5681527 CHEMBL1549343 CSSS00138423839 MCULE-5667514739 PubChem-4303516 ZINC000005681527 ZINC05681527
 28 30 0 0 0
SMALL
GASTEIGER

@<TRIPOS>ATOM
      1 C           7.0769   40.4881    6.7790 C.2     1  UNL1        0.2739
      2 C          10.7435   41.4210    5.8444 C.ar    1  UNL1        0.1866
      3 C           9.0894   39.9830    5.3647 C.ar    1  UNL1        0.3638
      4 O           6.2498   39.9564    5.9885 O.2     1  UNL1       -0.2660
      5 O           8.5497   39.0253    4.7495 O.2     1  UNL1       -0.2434
      6 N           8.4404   40.6696    6.3508 N.ar    1  UNL1       -0.1919
      7 N          10.3665   40.3770    5.0724 N.ar    1  UNL1       -0.1687
      8 S           9.5021   41.8437    6.8668 S.2     1  UNL1        0.0367
      9 C           4.7879   41.1676    9.7203 C.ar    1  UNL1        0.0716
     10 C           5.7019   41.6319   10.6763 C.ar    1  UNL1        0.0039
     11 C           7.0596   41.7277   10.3641 C.ar    1  UNL1        0.0001
     12 C           7.5113   41.3629    9.0938 C.ar    1  UNL1        0.0048
     13 C           6.6113   40.9068    8.1205 C.ar    1  UNL1        0.0571
     14 C           5.2512   40.8036    8.4487 C.ar    1  UNL1        0.0086
     15 F           3.0793   39.8345   10.6464 F       1  UNL1       -0.1659
     16 F           2.9590   42.0702   10.9013 F       1  UNL1       -0.1659
     17 F           2.5564   41.1421    8.8912 F       1  UNL1       -0.1659
     18 C           3.3255   41.0526   10.0395 C.3     1  UNL1        0.4186
     19 C          12.8568   42.3369    6.9128 C.2     1  UNL1        0.2509
     20 O          12.4960   41.9901    8.0708 O.2     1  UNL1       -0.2698
     21 N          12.0152   42.0729    5.7827 N.am    1  UNL1       -0.2594
     22 H          12.3365   42.3618    4.8981 H       1  UNL1        0.1571
     23 C          14.1498   43.0170    6.7206 C.ar    1  UNL1        0.0537
     24 C          14.2327   44.1705    5.9269 C.ar    1  UNL1        0.0045
     25 C          15.4589   44.8164    5.7440 C.ar    1  UNL1        0.0001
     26 C          16.6114   44.3136    6.3536 C.ar    1  UNL1        0.0000
     27 C          16.5382   43.1650    7.1461 C.ar    1  UNL1        0.0001
     28 C          15.3118   42.5190    7.3290 C.ar    1  UNL1        0.0045
@<TRIPOS>BOND
     1    18    15    1
     2    18    16    1
     3    18    17    1
     4    18     9    1
     5    10    11   ar
     6    12    13   ar
     7    13     1    1
     8    14     9   ar
     9     1     6   am
    10     2     8   ar
    11     2    21    1
    12    19    23    1
    13    24    25   ar
    14    26    27   ar
    15    28    23   ar
    16     3     7   ar
    17     3     6   ar
    18     6     8   ar
    19    21    19   am
    20     9    10   ar
    21    11    12   ar
    22    13    14   ar
    23     1     4    2
    24     2     7   ar
    25    19    20    2
    26    23    24   ar
    27    25    26   ar
    28    27    28   ar
    29     3     5    2
    30    21    22    1
@<TRIPOS>MOLECULE
MolPort-002-865-759 5681527 CHEMBL1549343 CSSS00138423839 MCULE-5667514739 PubChem-4303516 ZINC000005681527 ZINC05681527
 28 30 0 0 0
SMALL
GASTEIGER

@<TRIPOS>ATOM
      1 C           7.2941   40.1497    6.4355 C.2     1  UNL1        0.2739
      2 C          11.0654   40.9905    5.9278 C.ar    1  UNL1        0.1866
      3 C           9.5697   39.3259    5.7661 C.ar    1  UNL1        0.3638
      4 O           6.6629   39.2708    5.7868 O.2     1  UNL1       -0.2660
      5 O           9.1861   38.1553    5.5026 O.2     1  UNL1       -0.2434
      6 N           8.7157   40.2794    6.2420 N.ar    1  UNL1       -0.1919
      7 N          10.8754   39.6949    5.5908 N.ar    1  UNL1       -0.1687
      8 S           9.6281   41.6594    6.4294 S.2     1  UNL1        0.0367
      9 C           5.8623   43.2529    8.0703 C.ar    1  UNL1        0.0716
     10 C           5.0871   42.6899    9.0935 C.ar    1  UNL1        0.0039
     11 C           5.0328   41.3038    9.2542 C.ar    1  UNL1        0.0001
     12 C           5.7554   40.4725    8.3953 C.ar    1  UNL1        0.0048
     13 C           6.5454   41.0170    7.3731 C.ar    1  UNL1        0.0571
     14 C           6.5834   42.4103    7.2134 C.ar    1  UNL1        0.0086
     15 F           6.6958   45.3021    8.8829 F       1  UNL1       -0.1659
     16 F           6.5068   45.0235    6.6548 F       1  UNL1       -0.1659
     17 F           4.6641   45.3044    7.9155 F       1  UNL1       -0.1659
     18 C           5.9285   44.7405    7.8787 C.3     1  UNL1        0.4186
     19 C          13.1909   41.9172    6.9619 C.2     1  UNL1        0.2509
     20 O          12.8876   41.4986    8.1126 O.2     1  UNL1       -0.2698
     21 N          12.3132   41.6856    5.8524 N.am    1  UNL1       -0.2594
     22 H          12.5899   42.0308    4.9729 H       1  UNL1        0.1571
     23 C          14.4539   42.6481    6.7570 C.ar    1  UNL1        0.0537
     24 C          15.5586   42.4000    7.5849 C.ar    1  UNL1        0.0045
     25 C          16.7572   43.0930    7.3913 C.ar    1  UNL1        0.0001
     26 C          16.8600   44.0392    6.3682 C.ar    1  UNL1        0.0000
     27 C          15.7646   44.2929    5.5386 C.ar    1  UNL1        0.0001
     28 C          14.5658   43.5998    5.7322 C.ar    1  UNL1        0.0045
@<TRIPOS>BOND
     1    18    15    1
     2    18    16    1
     3    18    17    1
     4    18     9    1
     5    10    11   ar
     6    12    13   ar
     7    13     1    1
     8    14     9   ar
     9     1     6   am
    10     2     8   ar
    11     2    21    1
    12    19    23    1
    13    24    25   ar
    14    26    27   ar
    15    28    23   ar
    16     3     7   ar
    17     3     6   ar
    18     6     8   ar
    19    21    19   am
    20     9    10   ar
    21    11    12   ar
    22    13    14   ar
    23     1     4    2
    24     2     7   ar
    25    19    20    2
    26    23    24   ar
    27    25    26   ar
    28    27    28   ar
    29     3     5    2
    30    21    22    1
@<TRIPOS>MOLECULE
MolPort-002-865-759 5681527 CHEMBL1549343 CSSS00138423839 MCULE-5667514739 PubChem-4303516 ZINC000005681527 ZINC05681527
 28 30 0 0 0
SMALL
GASTEIGER

@<TRIPOS>ATOM
      1 C           9.4085   40.0144    5.8322 C.2     1  UNL1        0.2739
      2 C          12.0233   37.8601    3.9061 C.ar    1  UNL1        0.1866
      3 C           9.8680   38.4834    3.8956 C.ar    1  UNL1        0.3638
      4 O           8.4050   40.5654    5.3021 O.2     1  UNL1       -0.2660
      5 O           8.6923   38.5256    3.4451 O.2     1  UNL1       -0.2434
      6 N          10.2319   39.1405    5.0361 N.ar    1  UNL1       -0.1919
      7 N          10.8408   37.7635    3.2577 N.ar    1  UNL1       -0.1687
      8 S          11.8541   38.8300    5.2462 S.2     1  UNL1        0.0367
      9 C           9.0171   41.2555    9.3902 C.ar    1  UNL1        0.0716
     10 C          10.1954   40.7752    9.9783 C.ar    1  UNL1        0.0039
     11 C          11.1175   40.0523    9.2187 C.ar    1  UNL1        0.0001
     12 C          10.8690   39.8079    7.8661 C.ar    1  UNL1        0.0048
     13 C           9.7018   40.2896    7.2570 C.ar    1  UNL1        0.0571
     14 C           8.7767   41.0047    8.0324 C.ar    1  UNL1        0.0086
     15 F           6.7536   41.4868   10.0041 F       1  UNL1       -0.1659
     16 F           8.3386   41.9606   11.5342 F       1  UNL1       -0.1659
     17 F           7.9851   43.3599    9.8077 F       1  UNL1       -0.1659
     18 C           8.0116   42.0297   10.1922 C.3     1  UNL1        0.4186
     19 C          14.1776   36.6022    4.3781 C.2     1  UNL1        0.2509
     20 O          13.9606   36.5716    5.6204 O.2     1  UNL1       -0.2698
     21 N          13.2409   37.2325    3.4947 N.am    1  UNL1       -0.2594
     22 H          13.4515   37.2334    2.5329 H       1  UNL1        0.1571
     23 C          15.4002   35.9871    3.8321 C.ar    1  UNL1        0.0537
     24 C          16.2611   36.7296    3.0106 C.ar    1  UNL1        0.0045
     25 C          17.4212   36.1469    2.4921 C.ar    1  UNL1        0.0001
     26 C          17.7292   34.8172    2.7915 C.ar    1  UNL1        0.0000
     27 C          16.8773   34.0698    3.6091 C.ar    1  UNL1        0.0001
     28 C          15.7170   34.6526    4.1276 C.ar    1  UNL1        0.0045
@<TRIPOS>BOND
     1    18    15    1
     2    18    16    1
     3    18    17    1
     4    18     9    1
     5    10    11   ar
     6    12    13   ar
     7    13     1    1
     8    14     9   ar
     9     1     6   am
    10     2     8   ar
    11     2    21    1
    12    19    23    1
    13    24    25   ar
    14    26    27   ar
    15    28    23   ar
    16     3     7   ar
    17     3     6   ar
    18     6     8   ar
    19    21    19   am
    20     9    10   ar
    21    11    12   ar
    22    13    14   ar
    23     1     4    2
    24     2     7   ar
    25    19    20    2
    26    23    24   ar
    27    25    26   ar
    28    27    28   ar
    29     3     5    2
    30    21    22    1
