@<TRIPOS>MOLECULE
Molport-051-662-103 MCULE-9837835430
 30 33 0 0 0
SMALL
GASTEIGER

@<TRIPOS>ATOM
      1 C          14.3223   38.8364   10.2369 C.2     1  UNL1        0.2509
      2 N          15.4913   38.7342    9.4117 N.am    1  UNL1       -0.2606
      3 O          14.1681   38.0731   11.2284 O.2     1  UNL1       -0.2698
      4 H          15.5522   39.3551    8.6501 H       1  UNL1        0.1571
      5 C          12.3029   41.4334    8.3712 C.ar    1  UNL1        0.0362
      6 C          13.2763   40.4756    8.6737 C.ar    1  UNL1        0.0052
      7 C          13.2935   39.8442    9.9245 C.ar    1  UNL1        0.0537
      8 C          12.3190   40.1791   10.8728 C.ar    1  UNL1        0.0076
      9 C          11.3398   41.1290   10.5741 C.ar    1  UNL1        0.0368
     10 C          11.3201   41.7614    9.3206 C.ar    1  UNL1        0.1366
     11 C           9.9239   43.7207    9.9107 C.3     1  UNL1        0.2525
     12 O          10.3392   42.7090    9.0033 O.3     1  UNL1       -0.4717
     13 C          12.3001   42.0631    7.0165 C.3     1  UNL1        0.1568
     14 C          14.9057   44.2974    6.0924 C.ar    1  UNL1        0.1217
     15 C          15.6602   43.3676    6.7942 C.ar    1  UNL1        0.0427
     16 C          14.7491   42.4220    7.2307 C.ar    1  UNL1        0.0971
     17 N          13.5348   42.8009    6.8036 N.ar    1  UNL1       -0.2448
     18 N          13.6137   43.9221    6.1129 N.ar    1  UNL1       -0.1673
     19 C          16.5789   37.8181    9.5859 C.ar    1  UNL1        0.1655
     20 C          18.5863   36.5209   10.2291 C.ar    1  UNL1        0.0542
     21 C          17.8273   36.0038    9.1792 C.ar    1  UNL1        0.0836
     22 N          16.7194   36.7126    8.8298 N.ar    1  UNL1       -0.2269
     23 S          17.8197   37.9411   10.7124 S.2     1  UNL1       -0.0511
     24 C          18.1750   34.7200    8.5081 C.3     1  UNL1        0.1193
     25 C          18.4729   32.5685    9.5274 C.3     1  UNL1        0.0724
     26 C          19.0699   31.8754    8.2983 C.3     1  UNL1        0.0174
     27 C          17.9561   31.2875    7.4474 C.3     1  UNL1        0.0029
     28 C          16.9875   32.3898    7.0507 C.3     1  UNL1        0.0174
     29 C          16.4346   33.0682    8.3076 C.3     1  UNL1        0.0724
     30 N          17.4971   33.6083    9.1706 N.3     1  UNL1       -0.2677
@<TRIPOS>BOND
     1    13     5    1
     2    13    17    1
     3    14    15   ar
     4    16    17   ar
     5     6     7   ar
     6     7     1    1
     7     8     9   ar
     8    10    12    1
     9    10     5   ar
    10    11    12    1
    11     1     2   am
    12    19    23   ar
    13    20    23   ar
    14    21    22   ar
    15    24    21    1
    16    24    30    1
    17    25    30    1
    18    25    26    1
    19    26    27    1
    20    27    28    1
    21    28    29    1
    22    29    30    1
    23    17    18   ar
    24     2    19    1
    25     5     6   ar
    26    14    18   ar
    27    15    16   ar
    28     7     8   ar
    29     9    10   ar
    30     1     3    2
    31    19    22   ar
    32    20    21   ar
    33     2     4    1
@<TRIPOS>MOLECULE
Molport-051-662-103 MCULE-9837835430
 30 33 0 0 0
SMALL
GASTEIGER

@<TRIPOS>ATOM
      1 C          10.2021   41.6989    9.6337 C.2     1  UNL1        0.2509
      2 N          11.2305   40.8511   10.1645 N.am    1  UNL1       -0.2606
      3 O          10.4548   42.5056    8.6983 O.2     1  UNL1       -0.2698
      4 H          10.9722   40.2457   10.8966 H       1  UNL1        0.1571
      5 C           6.4295   41.5397    9.8468 C.ar    1  UNL1        0.0362
      6 C           7.7273   41.6094    9.3300 C.ar    1  UNL1        0.0052
      7 C           8.8375   41.6246   10.1849 C.ar    1  UNL1        0.0537
      8 C           8.6350   41.5643   11.5693 C.ar    1  UNL1        0.0076
      9 C           7.3420   41.4868   12.0913 C.ar    1  UNL1        0.0368
     10 C           6.2286   41.4697   11.2359 C.ar    1  UNL1        0.1366
     11 C           4.0720   40.2772   11.4878 C.3     1  UNL1        0.2525
     12 O           4.9267   41.3831   11.7442 O.3     1  UNL1       -0.4717
     13 C           5.2730   41.4961    8.9022 C.3     1  UNL1        0.1568
     14 C           3.6110   44.5993    8.4094 C.ar    1  UNL1        0.1217
     15 C           4.7825   44.8718    7.7168 C.ar    1  UNL1        0.0427
     16 C           5.5463   43.7243    7.8380 C.ar    1  UNL1        0.0971
     17 N           4.8451   42.8455    8.5704 N.ar    1  UNL1       -0.2448
     18 N           3.6778   43.3543    8.9154 N.ar    1  UNL1       -0.1673
     19 C          12.5961   40.7981    9.7348 C.ar    1  UNL1        0.1655
     20 C          15.0053   40.3968    9.3336 C.ar    1  UNL1        0.0542
     21 C          14.3815   41.3095    8.4831 C.ar    1  UNL1        0.0836
     22 N          13.0552   41.5252    8.6983 N.ar    1  UNL1       -0.2269
     23 S          13.8204   39.8629   10.4058 S.2     1  UNL1       -0.0511
     24 C          15.1082   41.9752    7.3658 C.3     1  UNL1        0.1193
     25 C          15.3774   44.2343    6.6041 C.3     1  UNL1        0.0724
     26 C          16.4006   43.9264    5.5060 C.3     1  UNL1        0.0174
     27 C          17.8061   43.9822    6.0820 C.3     1  UNL1        0.0029
     28 C          17.9175   43.0025    7.2388 C.3     1  UNL1        0.0174
     29 C          16.8632   43.3338    8.2993 C.3     1  UNL1        0.0724
     30 N          15.4958   43.3287    7.7558 N.3     1  UNL1       -0.2677
@<TRIPOS>BOND
     1    13     5    1
     2    13    17    1
     3    14    15   ar
     4    16    17   ar
     5     6     7   ar
     6     7     1    1
     7     8     9   ar
     8    10    12    1
     9    10     5   ar
    10    11    12    1
    11     1     2   am
    12    19    23   ar
    13    20    23   ar
    14    21    22   ar
    15    24    21    1
    16    24    30    1
    17    25    30    1
    18    25    26    1
    19    26    27    1
    20    27    28    1
    21    28    29    1
    22    29    30    1
    23    17    18   ar
    24     2    19    1
    25     5     6   ar
    26    14    18   ar
    27    15    16   ar
    28     7     8   ar
    29     9    10   ar
    30     1     3    2
    31    19    22   ar
    32    20    21   ar
    33     2     4    1
@<TRIPOS>MOLECULE
Molport-051-662-103 MCULE-9837835430
 30 33 0 0 0
SMALL
GASTEIGER

@<TRIPOS>ATOM
      1 C          11.6422   40.7420    9.9221 C.2     1  UNL1        0.2509
      2 N          11.0090   40.8616   11.2038 N.am    1  UNL1       -0.2606
      3 O          10.9826   40.9162    8.8619 O.2     1  UNL1       -0.2698
      4 H          11.5760   40.7102   11.9944 H       1  UNL1        0.1571
      5 C          15.3098   40.9120    9.0150 C.ar    1  UNL1        0.0362
      6 C          13.9471   41.2174    9.0939 C.ar    1  UNL1        0.0052
      7 C          13.0769   40.4150    9.8438 C.ar    1  UNL1        0.0537
      8 C          13.5875   39.3008   10.5215 C.ar    1  UNL1        0.0076
      9 C          14.9485   38.9951   10.4530 C.ar    1  UNL1        0.0368
     10 C          15.8220   39.7991    9.7033 C.ar    1  UNL1        0.1366
     11 C          17.7525   38.3128   10.1514 C.3     1  UNL1        0.2525
     12 O          17.1904   39.5104    9.6327 O.3     1  UNL1       -0.4717
     13 C          16.2105   41.8083    8.2294 C.3     1  UNL1        0.1568
     14 C          13.9268   43.1930    5.8837 C.ar    1  UNL1        0.1217
     15 C          14.7637   44.2892    6.0401 C.ar    1  UNL1        0.0427
     16 C          15.7175   43.8846    6.9574 C.ar    1  UNL1        0.0971
     17 N          15.4313   42.6220    7.3103 N.ar    1  UNL1       -0.2448
     18 N          14.3622   42.1907    6.6688 N.ar    1  UNL1       -0.1673
     19 C           9.6336   41.1796   11.4475 C.ar    1  UNL1        0.1655
     20 C           7.3672   41.6673   12.3146 C.ar    1  UNL1        0.0542
     21 C           7.5293   41.7466   10.9315 C.ar    1  UNL1        0.0836
     22 N           8.7768   41.4858   10.4546 N.ar    1  UNL1       -0.2269
     23 S           8.8687   41.2324   12.9428 S.2     1  UNL1       -0.0511
     24 C           6.4161   42.1455   10.0253 C.3     1  UNL1        0.1193
     25 C           4.5257   41.3485    8.7812 C.3     1  UNL1        0.0724
     26 C           3.5619   42.4651    9.1959 C.3     1  UNL1        0.0174
     27 C           2.8462   42.0768   10.4794 C.3     1  UNL1        0.0029
     28 C           3.8723   41.7941   11.5646 C.3     1  UNL1        0.0174
     29 C           4.8261   40.6901   11.0983 C.3     1  UNL1        0.0724
     30 N           5.4996   41.0241    9.8333 N.3     1  UNL1       -0.2677
@<TRIPOS>BOND
     1    13     5    1
     2    13    17    1
     3    14    15   ar
     4    16    17   ar
     5     6     7   ar
     6     7     1    1
     7     8     9   ar
     8    10    12    1
     9    10     5   ar
    10    11    12    1
    11     1     2   am
    12    19    23   ar
    13    20    23   ar
    14    21    22   ar
    15    24    21    1
    16    24    30    1
    17    25    30    1
    18    25    26    1
    19    26    27    1
    20    27    28    1
    21    28    29    1
    22    29    30    1
    23    17    18   ar
    24     2    19    1
    25     5     6   ar
    26    14    18   ar
    27    15    16   ar
    28     7     8   ar
    29     9    10   ar
    30     1     3    2
    31    19    22   ar
    32    20    21   ar
    33     2     4    1
@<TRIPOS>MOLECULE
Molport-051-662-103 MCULE-9837835430
 30 33 0 0 0
SMALL
GASTEIGER

@<TRIPOS>ATOM
      1 C          10.3917   42.1742   10.0376 C.2     1  UNL1        0.2509
      2 N          11.1124   41.0974    9.4217 N.am    1  UNL1       -0.2606
      3 O          10.9399   43.2960   10.2124 O.2     1  UNL1       -0.2698
      4 H          10.6315   40.2449    9.3165 H       1  UNL1        0.1571
      5 C           6.6457   41.6671    9.9213 C.ar    1  UNL1        0.0362
      6 C           7.9712   41.8621    9.5195 C.ar    1  UNL1        0.0052
      7 C           8.9974   41.9681   10.4677 C.ar    1  UNL1        0.0537
      8 C           8.6830   41.8718   11.8290 C.ar    1  UNL1        0.0076
      9 C           7.3625   41.6694   12.2363 C.ar    1  UNL1        0.0368
     10 C           6.3333   41.5613   11.2872 C.ar    1  UNL1        0.1366
     11 C           4.2229   40.2673   11.1947 C.3     1  UNL1        0.2525
     12 O           5.0061   41.3492   11.6800 O.3     1  UNL1       -0.4717
     13 C           5.5839   41.5298    8.8795 C.3     1  UNL1        0.1568
     14 C           5.0303   44.7854    7.5644 C.ar    1  UNL1        0.1217
     15 C           3.8810   44.6672    8.3334 C.ar    1  UNL1        0.0427
     16 C           3.9620   43.4114    8.9090 C.ar    1  UNL1        0.0971
     17 N           5.0989   42.8414    8.4814 N.ar    1  UNL1       -0.2448
     18 N           5.7546   43.6571    7.6782 N.ar    1  UNL1       -0.1673
     19 C          12.4625   41.1399    8.9444 C.ar    1  UNL1        0.1655
     20 C          14.6208   41.4764    7.7805 C.ar    1  UNL1        0.0542
     21 C          14.6593   40.7039    8.9412 C.ar    1  UNL1        0.0836
     22 N          13.4743   40.5245    9.5858 N.ar    1  UNL1       -0.2269
     23 S          13.0121   41.9290    7.5664 S.2     1  UNL1       -0.0511
     24 C          15.9317   40.1470    9.4800 C.3     1  UNL1        0.1193
     25 C          16.7921   39.0815   11.4500 C.3     1  UNL1        0.0724
     26 C          18.0281   38.4643   10.7876 C.3     1  UNL1        0.0174
     27 C          17.6825   37.0931   10.2302 C.3     1  UNL1        0.0029
     28 C          16.5295   37.2225    9.2483 C.3     1  UNL1        0.0174
     29 C          15.3264   37.8637    9.9464 C.3     1  UNL1        0.0724
     30 N          15.6474   39.1747   10.5327 N.3     1  UNL1       -0.2677
@<TRIPOS>BOND
     1    13     5    1
     2    13    17    1
     3    14    15   ar
     4    16    17   ar
     5     6     7   ar
     6     7     1    1
     7     8     9   ar
     8    10    12    1
     9    10     5   ar
    10    11    12    1
    11     1     2   am
    12    19    23   ar
    13    20    23   ar
    14    21    22   ar
    15    24    21    1
    16    24    30    1
    17    25    30    1
    18    25    26    1
    19    26    27    1
    20    27    28    1
    21    28    29    1
    22    29    30    1
    23    17    18   ar
    24     2    19    1
    25     5     6   ar
    26    14    18   ar
    27    15    16   ar
    28     7     8   ar
    29     9    10   ar
    30     1     3    2
    31    19    22   ar
    32    20    21   ar
    33     2     4    1
@<TRIPOS>MOLECULE
Molport-051-662-103 MCULE-9837835430
 30 33 0 0 0
SMALL
GASTEIGER

@<TRIPOS>ATOM
      1 C          11.7246   41.7623    8.8949 C.2     1  UNL1        0.2509
      2 N          10.7726   42.1031    9.9125 N.am    1  UNL1       -0.2606
      3 O          11.5284   42.0961    7.6950 O.2     1  UNL1       -0.2698
      4 H          10.9801   41.8112   10.8296 H       1  UNL1        0.1571
      5 C          14.0544   39.3085   10.5842 C.ar    1  UNL1        0.0362
      6 C          12.9005   40.0186   10.2370 C.ar    1  UNL1        0.0052
      7 C          12.9440   41.0176    9.2554 C.ar    1  UNL1        0.0537
      8 C          14.1593   41.2971    8.6179 C.ar    1  UNL1        0.0076
      9 C          15.3133   40.5863    8.9546 C.ar    1  UNL1        0.0368
     10 C          15.2709   39.5838    9.9369 C.ar    1  UNL1        0.1366
     11 C          17.7188   39.4281   10.2843 C.3     1  UNL1        0.2525
     12 O          16.4178   38.8566   10.2786 O.3     1  UNL1       -0.4717
     13 C          13.9615   38.2309   11.6147 C.3     1  UNL1        0.1568
     14 C          13.6440   35.0792   10.0022 C.ar    1  UNL1        0.1217
     15 C          12.2973   35.3843   10.1422 C.ar    1  UNL1        0.0427
     16 C          12.2719   36.6120   10.7802 C.ar    1  UNL1        0.0971
     17 N          13.5430   36.9823   10.9986 N.ar    1  UNL1       -0.2448
     18 N          14.3787   36.0748   10.5309 N.ar    1  UNL1       -0.1673
     19 C           9.5499   42.8262    9.7266 C.ar    1  UNL1        0.1655
     20 C           7.6983   44.4506    9.4836 C.ar    1  UNL1        0.0542
     21 C           7.3673   43.1068    9.3101 C.ar    1  UNL1        0.0836
     22 N           8.3862   42.2136    9.4363 N.ar    1  UNL1       -0.2269
     23 S           9.3474   44.4914    9.8261 S.2     1  UNL1       -0.0511
     24 C           5.9880   42.6704    8.9543 C.3     1  UNL1        0.1193
     25 C           4.5065   40.7835    8.9186 C.3     1  UNL1        0.0724
     26 C           3.2351   41.5541    9.2891 C.3     1  UNL1        0.0174
     27 C           3.0874   41.6067   10.8009 C.3     1  UNL1        0.0029
     28 C           4.3250   42.2476   11.4077 C.3     1  UNL1        0.0174
     29 C           5.5708   41.4591   10.9930 C.3     1  UNL1        0.0724
     30 N           5.7130   41.3570    9.5319 N.3     1  UNL1       -0.2677
@<TRIPOS>BOND
     1    13     5    1
     2    13    17    1
     3    14    15   ar
     4    16    17   ar
     5     6     7   ar
     6     7     1    1
     7     8     9   ar
     8    10    12    1
     9    10     5   ar
    10    11    12    1
    11     1     2   am
    12    19    23   ar
    13    20    23   ar
    14    21    22   ar
    15    24    21    1
    16    24    30    1
    17    25    30    1
    18    25    26    1
    19    26    27    1
    20    27    28    1
    21    28    29    1
    22    29    30    1
    23    17    18   ar
    24     2    19    1
    25     5     6   ar
    26    14    18   ar
    27    15    16   ar
    28     7     8   ar
    29     9    10   ar
    30     1     3    2
    31    19    22   ar
    32    20    21   ar
    33     2     4    1
@<TRIPOS>MOLECULE
Molport-051-662-103 MCULE-9837835430
 30 33 0 0 0
SMALL
GASTEIGER

@<TRIPOS>ATOM
      1 C          11.6899   41.2971    9.1725 C.2     1  UNL1        0.2509
      2 N          10.6429   40.4855    8.6219 N.am    1  UNL1       -0.2606
      3 O          11.5852   42.5533    9.1918 O.2     1  UNL1       -0.2698
      4 H          10.7851   39.5114    8.6319 H       1  UNL1        0.1571
      5 C          15.2942   40.2470    9.6302 C.ar    1  UNL1        0.0362
      6 C          14.1442   40.8525    9.1133 C.ar    1  UNL1        0.0052
      7 C          12.8977   40.6567    9.7228 C.ar    1  UNL1        0.0537
      8 C          12.8139   39.8485   10.8634 C.ar    1  UNL1        0.0076
      9 C          13.9597   39.2475   11.3889 C.ar    1  UNL1        0.0368
     10 C          15.2098   39.4441   10.7804 C.ar    1  UNL1        0.1366
     11 C          17.6525   39.4551   11.1927 C.3     1  UNL1        0.2525
     12 O          16.3687   38.8554   11.3011 O.3     1  UNL1       -0.4717
     13 C          16.6094   40.5034    8.9696 C.3     1  UNL1        0.1568
     14 C          17.2522   43.9607    8.4511 C.ar    1  UNL1        0.1217
     15 C          16.2970   43.7703    7.4624 C.ar    1  UNL1        0.0427
     16 C          15.9563   42.4317    7.5457 C.ar    1  UNL1        0.0971
     17 N          16.6884   41.8869    8.5294 N.ar    1  UNL1       -0.2448
     18 N          17.4669   42.7944    9.0870 N.ar    1  UNL1       -0.1673
     19 C           9.4109   40.9520    8.0591 C.ar    1  UNL1        0.1655
     20 C           7.5445   41.8801    6.7244 C.ar    1  UNL1        0.0542
     21 C           7.2091   41.3523    7.9711 C.ar    1  UNL1        0.0836
     22 N           8.2335   40.8351    8.7025 N.ar    1  UNL1       -0.2269
     23 S           9.2110   41.6919    6.5636 S.2     1  UNL1       -0.0511
     24 C           5.8022   41.3060    8.4590 C.3     1  UNL1        0.1193
     25 C           5.3671   41.2938   10.8184 C.3     1  UNL1        0.0724
     26 C           3.9881   40.6312   10.7371 C.3     1  UNL1        0.0174
     27 C           2.9149   41.6950   10.5726 C.3     1  UNL1        0.0029
     28 C           3.2100   42.5230    9.3325 C.3     1  UNL1        0.0174
     29 C           4.6044   43.1460    9.4474 C.3     1  UNL1        0.0724
     30 N           5.6572   42.1383    9.6509 N.3     1  UNL1       -0.2677
@<TRIPOS>BOND
     1    13     5    1
     2    13    17    1
     3    14    15   ar
     4    16    17   ar
     5     6     7   ar
     6     7     1    1
     7     8     9   ar
     8    10    12    1
     9    10     5   ar
    10    11    12    1
    11     1     2   am
    12    19    23   ar
    13    20    23   ar
    14    21    22   ar
    15    24    21    1
    16    24    30    1
    17    25    30    1
    18    25    26    1
    19    26    27    1
    20    27    28    1
    21    28    29    1
    22    29    30    1
    23    17    18   ar
    24     2    19    1
    25     5     6   ar
    26    14    18   ar
    27    15    16   ar
    28     7     8   ar
    29     9    10   ar
    30     1     3    2
    31    19    22   ar
    32    20    21   ar
    33     2     4    1
@<TRIPOS>MOLECULE
Molport-051-662-103 MCULE-9837835430
 30 33 0 0 0
SMALL
GASTEIGER

@<TRIPOS>ATOM
      1 C           8.2559   41.5051    9.3060 C.2     1  UNL1        0.2509
      2 N           9.4213   41.0605   10.0146 N.am    1  UNL1       -0.2606
      3 O           8.3455   41.9157    8.1173 O.2     1  UNL1       -0.2698
      4 H           9.2874   40.7554   10.9411 H       1  UNL1        0.1571
      5 C           4.5545   41.9484    9.9434 C.ar    1  UNL1        0.0362
      6 C           5.8045   41.9693    9.3163 C.ar    1  UNL1        0.0052
      7 C           6.9417   41.4795    9.9723 C.ar    1  UNL1        0.0537
      8 C           6.8140   40.9617   11.2672 C.ar    1  UNL1        0.0076
      9 C           5.5674   40.9310   11.8958 C.ar    1  UNL1        0.0368
     10 C           4.4266   41.4198   11.2391 C.ar    1  UNL1        0.1366
     11 C           2.4467   42.5632   12.1929 C.3     1  UNL1        0.2525
     12 O           3.1684   41.3872   11.8531 O.3     1  UNL1       -0.4717
     13 C           3.3607   42.4527    9.2003 C.3     1  UNL1        0.1568
     14 C           3.4414   45.5614    7.4786 C.ar    1  UNL1        0.1217
     15 C           4.8006   45.2806    7.4766 C.ar    1  UNL1        0.0427
     16 C           4.9183   44.0722    8.1405 C.ar    1  UNL1        0.0971
     17 N           3.6860   43.6894    8.5083 N.ar    1  UNL1       -0.2448
     18 N           2.7876   44.5705    8.1120 N.ar    1  UNL1       -0.1673
     19 C          10.7605   41.0164    9.5079 C.ar    1  UNL1        0.1655
     20 C          13.0173   41.3953    8.5649 C.ar    1  UNL1        0.0542
     21 C          12.7201   40.0876    8.9484 C.ar    1  UNL1        0.0836
     22 N          11.4821   39.8798    9.4738 N.ar    1  UNL1       -0.2269
     23 S          11.6415   42.3097    8.8955 S.2     1  UNL1       -0.0511
     24 C          13.7162   38.9850    8.8406 C.3     1  UNL1        0.1193
     25 C          14.6501   39.1832   11.0417 C.3     1  UNL1        0.0724
     26 C          16.1077   39.3442   10.5978 C.3     1  UNL1        0.0174
     27 C          16.7616   37.9778   10.4732 C.3     1  UNL1        0.0029
     28 C          15.9708   37.1265    9.4932 C.3     1  UNL1        0.0174
     29 C          14.5179   37.0121    9.9641 C.3     1  UNL1        0.0724
     30 N          13.8753   38.3249   10.1342 N.3     1  UNL1       -0.2677
@<TRIPOS>BOND
     1    13     5    1
     2    13    17    1
     3    14    15   ar
     4    16    17   ar
     5     6     7   ar
     6     7     1    1
     7     8     9   ar
     8    10    12    1
     9    10     5   ar
    10    11    12    1
    11     1     2   am
    12    19    23   ar
    13    20    23   ar
    14    21    22   ar
    15    24    21    1
    16    24    30    1
    17    25    30    1
    18    25    26    1
    19    26    27    1
    20    27    28    1
    21    28    29    1
    22    29    30    1
    23    17    18   ar
    24     2    19    1
    25     5     6   ar
    26    14    18   ar
    27    15    16   ar
    28     7     8   ar
    29     9    10   ar
    30     1     3    2
    31    19    22   ar
    32    20    21   ar
    33     2     4    1
@<TRIPOS>MOLECULE
Molport-051-662-103 MCULE-9837835430
 30 33 0 0 0
SMALL
GASTEIGER

@<TRIPOS>ATOM
      1 C          11.8137   40.3843    7.8083 C.2     1  UNL1        0.2509
      2 N          10.8137   41.2499    8.3640 N.am    1  UNL1       -0.2606
      3 O          11.5336   39.6105    6.8532 O.2     1  UNL1       -0.2698
      4 H          11.0926   41.8277    9.1107 H       1  UNL1        0.1571
      5 C          15.4145   41.3643    8.4220 C.ar    1  UNL1        0.0362
      6 C          14.1148   41.3435    7.9056 C.ar    1  UNL1        0.0052
      7 C          13.1812   40.4012    8.3572 C.ar    1  UNL1        0.0537
      8 C          13.5618   39.4782    9.3393 C.ar    1  UNL1        0.0076
      9 C          14.8556   39.4989    9.8645 C.ar    1  UNL1        0.0368
     10 C          15.7918   40.4436    9.4142 C.ar    1  UNL1        0.1366
     11 C          17.7475   39.3325   10.4523 C.3     1  UNL1        0.2525
     12 O          17.0899   40.4824    9.9379 O.3     1  UNL1       -0.4717
     13 C          16.3723   42.4029    7.9362 C.3     1  UNL1        0.1568
     14 C          15.1702   45.1109    5.9724 C.ar    1  UNL1        0.1217
     15 C          14.3073   44.1212    5.5228 C.ar    1  UNL1        0.0427
     16 C          14.6778   42.9810    6.2138 C.ar    1  UNL1        0.0971
     17 N          15.7065   43.3061    7.0116 N.ar    1  UNL1       -0.2448
     18 N          16.0094   44.5837    6.8825 N.ar    1  UNL1       -0.1673
     19 C           9.4495   41.3570    7.9399 C.ar    1  UNL1        0.1655
     20 C           7.2747   41.6339    6.7910 C.ar    1  UNL1        0.0542
     21 C           7.2200   41.3185    8.1486 C.ar    1  UNL1        0.0836
     22 N           8.4152   41.1588    8.7794 N.ar    1  UNL1       -0.2269
     23 S           8.9090   41.7270    6.3924 S.2     1  UNL1       -0.0511
     24 C           5.9285   41.1143    8.8627 C.3     1  UNL1        0.1193
     25 C           5.4484   41.5372   11.1751 C.3     1  UNL1        0.0724
     26 C           4.0839   40.8408   11.1992 C.3     1  UNL1        0.0174
     27 C           2.9943   41.8305   10.8204 C.3     1  UNL1        0.0029
     28 C           3.2975   42.4163    9.4510 C.3     1  UNL1        0.0174
     29 C           4.6774   43.0806    9.4675 C.3     1  UNL1        0.0724
     30 N           5.7450   42.1528    9.8737 N.3     1  UNL1       -0.2677
@<TRIPOS>BOND
     1    13     5    1
     2    13    17    1
     3    14    15   ar
     4    16    17   ar
     5     6     7   ar
     6     7     1    1
     7     8     9   ar
     8    10    12    1
     9    10     5   ar
    10    11    12    1
    11     1     2   am
    12    19    23   ar
    13    20    23   ar
    14    21    22   ar
    15    24    21    1
    16    24    30    1
    17    25    30    1
    18    25    26    1
    19    26    27    1
    20    27    28    1
    21    28    29    1
    22    29    30    1
    23    17    18   ar
    24     2    19    1
    25     5     6   ar
    26    14    18   ar
    27    15    16   ar
    28     7     8   ar
    29     9    10   ar
    30     1     3    2
    31    19    22   ar
    32    20    21   ar
    33     2     4    1
@<TRIPOS>MOLECULE
Molport-051-662-103 MCULE-9837835430
 30 33 0 0 0
SMALL
GASTEIGER

@<TRIPOS>ATOM
      1 C           9.5323   42.2395    9.2024 C.2     1  UNL1        0.2509
      2 N          10.5044   42.3869    8.1577 N.am    1  UNL1       -0.2606
      3 O           9.8354   41.6688   10.2850 O.2     1  UNL1       -0.2698
      4 H          10.2062   42.8377    7.3349 H       1  UNL1        0.1571
      5 C           5.7767   42.3770    8.7790 C.ar    1  UNL1        0.0362
      6 C           7.0740   41.8876    8.9624 C.ar    1  UNL1        0.0052
      7 C           8.1680   42.7620    9.0096 C.ar    1  UNL1        0.0537
      8 C           7.9490   44.1387    8.8755 C.ar    1  UNL1        0.0076
      9 C           6.6552   44.6342    8.7000 C.ar    1  UNL1        0.0368
     10 C           5.5578   43.7595    8.6541 C.ar    1  UNL1        0.1366
     11 C           3.9047   45.1876    7.4859 C.3     1  UNL1        0.2525
     12 O           4.2539   44.2423    8.4878 O.3     1  UNL1       -0.4717
     13 C           4.6333   41.4156    8.7634 C.3     1  UNL1        0.1568
     14 C           2.4176   42.0087   11.4788 C.ar    1  UNL1        0.1217
     15 C           3.3673   41.2434   12.1411 C.ar    1  UNL1        0.0427
     16 C           4.3082   40.9260   11.1772 C.ar    1  UNL1        0.0971
     17 N           3.9078   41.4785   10.0218 N.ar    1  UNL1       -0.2448
     18 N           2.7771   42.1375   10.1886 N.ar    1  UNL1       -0.1673
     19 C          11.8661   41.9431    8.1932 C.ar    1  UNL1        0.1655
     20 C          14.2696   41.4428    7.8784 C.ar    1  UNL1        0.0542
     21 C          13.6490   40.8305    8.9672 C.ar    1  UNL1        0.0836
     22 N          12.3293   41.1109    9.1453 N.ar    1  UNL1       -0.2269
     23 S          13.0824   42.3594    7.1110 S.2     1  UNL1       -0.0511
     24 C          14.3957   39.9588    9.9170 C.3     1  UNL1        0.1193
     25 C          14.2599   38.8247   12.0270 C.3     1  UNL1        0.0724
     26 C          15.0011   37.5568   11.5904 C.3     1  UNL1        0.0174
     27 C          14.0124   36.5538   11.0188 C.3     1  UNL1        0.0029
     28 C          13.2620   37.1884    9.8592 C.3     1  UNL1        0.0174
     29 C          12.5568   38.4618   10.3357 C.3     1  UNL1        0.0724
     30 N          13.4880   39.4320   10.9334 N.3     1  UNL1       -0.2677
@<TRIPOS>BOND
     1    13     5    1
     2    13    17    1
     3    14    15   ar
     4    16    17   ar
     5     6     7   ar
     6     7     1    1
     7     8     9   ar
     8    10    12    1
     9    10     5   ar
    10    11    12    1
    11     1     2   am
    12    19    23   ar
    13    20    23   ar
    14    21    22   ar
    15    24    21    1
    16    24    30    1
    17    25    30    1
    18    25    26    1
    19    26    27    1
    20    27    28    1
    21    28    29    1
    22    29    30    1
    23    17    18   ar
    24     2    19    1
    25     5     6   ar
    26    14    18   ar
    27    15    16   ar
    28     7     8   ar
    29     9    10   ar
    30     1     3    2
    31    19    22   ar
    32    20    21   ar
    33     2     4    1
@<TRIPOS>MOLECULE
Molport-051-662-103 MCULE-9837835430
 30 33 0 0 0
SMALL
GASTEIGER

@<TRIPOS>ATOM
      1 C          13.1232   40.7723    8.2861 C.2     1  UNL1        0.2509
      2 N          12.0146   39.9279    8.6266 N.am    1  UNL1       -0.2606
      3 O          12.9791   41.7224    7.4700 O.2     1  UNL1       -0.2698
      4 H          12.1911   39.2007    9.2664 H       1  UNL1        0.1571
      5 C          16.7983   41.0915    9.1196 C.ar    1  UNL1        0.0362
      6 C          15.5441   41.3181    8.5435 C.ar    1  UNL1        0.0052
      7 C          14.4417   40.5287    8.8974 C.ar    1  UNL1        0.0537
      8 C          14.6069   39.5081    9.8421 C.ar    1  UNL1        0.0076
      9 C          15.8549   39.2819   10.4266 C.ar    1  UNL1        0.0368
     10 C          16.9601   40.0732   10.0743 C.ar    1  UNL1        0.1366
     11 C          18.8104   38.5782   10.7658 C.3     1  UNL1        0.2525
     12 O          18.2154   39.8642   10.6585 O.3     1  UNL1       -0.4717
     13 C          17.9425   41.9731    8.7382 C.3     1  UNL1        0.1568
     14 C          17.4004   43.8675    5.7797 C.ar    1  UNL1        0.1217
     15 C          16.6248   44.6134    6.6564 C.ar    1  UNL1        0.0427
     16 C          16.7388   43.9675    7.8749 C.ar    1  UNL1        0.0971
     17 N          17.5346   42.9021    7.6967 N.ar    1  UNL1       -0.2448
     18 N          17.9452   42.8324    6.4448 N.ar    1  UNL1       -0.1673
     19 C          10.6761   40.0378    8.1280 C.ar    1  UNL1        0.1655
     20 C           8.2981   40.5092    7.6290 C.ar    1  UNL1        0.0542
     21 C           8.9585   39.6599    6.7413 C.ar    1  UNL1        0.0836
     22 N          10.2680   39.4060    7.0108 N.ar    1  UNL1       -0.2269
     23 S           9.4265   40.9339    8.8058 S.2     1  UNL1       -0.0511
     24 C           8.2885   39.1003    5.5340 C.3     1  UNL1        0.1193
     25 C           8.6762   38.9497    3.1711 C.3     1  UNL1        0.0724
     26 C           9.7403   37.8495    3.2396 C.3     1  UNL1        0.0174
     27 C          11.1169   38.4741    3.3979 C.3     1  UNL1        0.0029
     28 C          11.1359   39.3468    4.6423 C.3     1  UNL1        0.0174
     29 C          10.0435   40.4154    4.5402 C.3     1  UNL1        0.0724
     30 N           8.7051   39.8366    4.3429 N.3     1  UNL1       -0.2677
@<TRIPOS>BOND
     1    13     5    1
     2    13    17    1
     3    14    15   ar
     4    16    17   ar
     5     6     7   ar
     6     7     1    1
     7     8     9   ar
     8    10    12    1
     9    10     5   ar
    10    11    12    1
    11     1     2   am
    12    19    23   ar
    13    20    23   ar
    14    21    22   ar
    15    24    21    1
    16    24    30    1
    17    25    30    1
    18    25    26    1
    19    26    27    1
    20    27    28    1
    21    28    29    1
    22    29    30    1
    23    17    18   ar
    24     2    19    1
    25     5     6   ar
    26    14    18   ar
    27    15    16   ar
    28     7     8   ar
    29     9    10   ar
    30     1     3    2
    31    19    22   ar
    32    20    21   ar
    33     2     4    1
