@<TRIPOS>MOLECULE
MolPort-005-164-924 11753617 CSSS00159809594 MCULE-5538880029 PubChem-42147430 ZINC000011753617
 29 32 0 0 0
SMALL
GASTEIGER

@<TRIPOS>ATOM
      1 C          12.3701   40.2077    8.3337 C.ar    1  UNL1        0.1328
      2 C          12.1022   38.9961    7.7246 C.ar    1  UNL1        0.0565
      3 C          10.9825   38.5336    8.4071 C.ar    1  UNL1        0.1230
      4 N          10.6260   39.4260    9.3550 N.ar    1  UNL1       -0.1666
      5 N          11.4702   40.4406    9.2989 N.ar    1  UNL1       -0.2394
      6 C          11.4459   41.6009   10.1863 C.3     1  UNL1        0.1093
      7 C          11.0282   42.8725    9.4306 C.3     1  UNL1        0.0418
      8 C           9.5699   43.2593    9.6860 C.3     1  UNL1        0.0741
      9 C           9.0776   41.4889   11.1902 C.3     1  UNL1        0.0741
     10 C          10.5902   41.3252   11.4303 C.3     1  UNL1        0.0418
     11 N           8.7641   42.0583    9.8775 N.3     1  UNL1       -0.2725
     12 C           7.3701   42.4685    9.9184 C.3     1  UNL1        0.0742
     13 C           6.6942   42.1870    8.5821 C.3     1  UNL1        0.0437
     14 C           5.6927   41.0432    8.6945 C.3     1  UNL1        0.1289
     15 C           4.7022   40.8733   10.9636 C.ar    1  UNL1        0.0967
     16 C           3.5733   41.3580   11.6004 C.ar    1  UNL1        0.0427
     17 C           2.9143   42.1127   10.6404 C.ar    1  UNL1        0.1217
     18 N           4.6867   41.3343    9.7040 N.ar    1  UNL1       -0.2494
     19 N           3.6167   42.0770    9.4933 N.ar    1  UNL1       -0.1677
     20 O          12.5293   42.0210    6.0635 O.2     1  UNL1       -0.2697
     21 C          13.4860   41.9863    6.8847 C.2     1  UNL1        0.2521
     22 N          13.4413   41.1057    8.0158 N.am    1  UNL1       -0.2660
     23 H          14.2132   41.1191    8.6268 H       1  UNL1        0.1566
     24 C          14.6575   42.8559    6.6812 C.ar    1  UNL1        0.0728
     25 C          14.6789   43.7975    5.6437 C.ar    1  UNL1        0.1034
     26 C          16.8546   44.5103    6.2728 C.ar    1  UNL1        0.0989
     27 C          16.8781   43.5868    7.3194 C.ar    1  UNL1        0.0208
     28 C          15.7733   42.7583    7.5211 C.ar    1  UNL1        0.0077
     29 N          15.7652   44.5962    5.4633 N.ar    1  UNL1       -0.2422
@<TRIPOS>BOND
     1    21    22   am
     2    21    24    1
     3     2     3   ar
     4     6     5    1
     5     6     7    1
     6     7     8    1
     7     8    11    1
     8    12    11    1
     9    12    13    1
    10    13    14    1
    11    14    18    1
    12    16    17   ar
    13     9    11    1
    14     9    10    1
    15    10     6    1
    16    25    29   ar
    17    26    27   ar
    18    28    24   ar
    19    22     1    1
    20     5     4   ar
    21     5     1   ar
    22    18    15   ar
    23    18    19   ar
    24    21    20    2
    25     1     2   ar
    26     3     4   ar
    27    15    16   ar
    28    17    19   ar
    29    24    25   ar
    30    26    29   ar
    31    27    28   ar
    32    22    23    1
@<TRIPOS>MOLECULE
MolPort-005-164-924 11753617 CSSS00159809594 MCULE-5538880029 PubChem-42147430 ZINC000011753617
 29 32 0 0 0
SMALL
GASTEIGER

@<TRIPOS>ATOM
      1 C          12.5100   40.3514    7.4600 C.ar    1  UNL1        0.1328
      2 C          11.6828   40.0821    6.3857 C.ar    1  UNL1        0.0565
      3 C          10.6673   39.3150    6.9461 C.ar    1  UNL1        0.1230
      4 N          10.8960   39.1509    8.2663 N.ar    1  UNL1       -0.1666
      5 N          12.0129   39.7879    8.5695 N.ar    1  UNL1       -0.2394
      6 C          12.6241   39.8223    9.8960 C.3     1  UNL1        0.1093
      7 C          12.4157   38.4940   10.6409 C.3     1  UNL1        0.0418
      8 C          13.6620   37.6063   10.6256 C.3     1  UNL1        0.0741
      9 C          15.0495   39.1051    9.4140 C.3     1  UNL1        0.0741
     10 C          14.0967   40.2475    9.8133 C.3     1  UNL1        0.0418
     11 N          14.3917   37.7969    9.3767 N.3     1  UNL1       -0.2725
     12 C          15.4456   36.7967    9.3287 C.3     1  UNL1        0.0742
     13 C          14.9854   35.5777    8.5388 C.3     1  UNL1        0.0437
     14 C          16.0166   34.4562    8.5943 C.3     1  UNL1        0.1289
     15 C          15.8647   32.7310    6.8168 C.ar    1  UNL1        0.0967
     16 C          15.1248   31.5820    6.5995 C.ar    1  UNL1        0.0427
     17 C          14.3071   31.4640    7.7143 C.ar    1  UNL1        0.1217
     18 N          15.4879   33.2383    8.0000 N.ar    1  UNL1       -0.2494
     19 N          14.5499   32.4906    8.5496 N.ar    1  UNL1       -0.1677
     20 O          12.9565   42.9158    6.1595 O.2     1  UNL1       -0.2697
     21 C          13.9110   42.3717    6.7791 C.2     1  UNL1        0.2521
     22 N          13.7269   41.1085    7.4328 N.am    1  UNL1       -0.2660
     23 H          14.5036   40.7286    7.9036 H       1  UNL1        0.1566
     24 C          15.2239   43.0377    6.8319 C.ar    1  UNL1        0.0728
     25 C          15.4825   44.1737    6.0535 C.ar    1  UNL1        0.1034
     26 C          17.6921   44.3154    6.9108 C.ar    1  UNL1        0.0989
     27 C          17.4799   43.1864    7.7040 C.ar    1  UNL1        0.0208
     28 C          16.2396   42.5480    7.6616 C.ar    1  UNL1        0.0077
     29 N          16.6980   44.7821    6.1086 N.ar    1  UNL1       -0.2422
@<TRIPOS>BOND
     1    21    22   am
     2    21    24    1
     3     2     3   ar
     4     6     5    1
     5     6     7    1
     6     7     8    1
     7     8    11    1
     8    12    11    1
     9    12    13    1
    10    13    14    1
    11    14    18    1
    12    16    17   ar
    13     9    11    1
    14     9    10    1
    15    10     6    1
    16    25    29   ar
    17    26    27   ar
    18    28    24   ar
    19    22     1    1
    20     5     4   ar
    21     5     1   ar
    22    18    15   ar
    23    18    19   ar
    24    21    20    2
    25     1     2   ar
    26     3     4   ar
    27    15    16   ar
    28    17    19   ar
    29    24    25   ar
    30    26    29   ar
    31    27    28   ar
    32    22    23    1
@<TRIPOS>MOLECULE
MolPort-005-164-924 11753617 CSSS00159809594 MCULE-5538880029 PubChem-42147430 ZINC000011753617
 29 32 0 0 0
SMALL
GASTEIGER

@<TRIPOS>ATOM
      1 C          11.9258   41.5497    6.4698 C.ar    1  UNL1        0.1328
      2 C          11.2626   41.2451    5.2957 C.ar    1  UNL1        0.0565
      3 C           9.9591   41.0041    5.7159 C.ar    1  UNL1        0.1230
      4 N           9.8757   41.1599    7.0540 N.ar    1  UNL1       -0.1666
      5 N          11.0723   41.4963    7.5015 N.ar    1  UNL1       -0.2394
      6 C          11.4091   41.7217    8.9050 C.3     1  UNL1        0.1093
      7 C          10.2801   41.2455    9.8331 C.3     1  UNL1        0.0418
      8 C          10.5814   39.8940   10.4843 C.3     1  UNL1        0.0741
      9 C          12.7278   39.5956    9.5131 C.3     1  UNL1        0.0741
     10 C          12.7753   41.1122    9.2485 C.3     1  UNL1        0.0418
     11 N          11.3632   39.0666    9.5718 N.3     1  UNL1       -0.2725
     12 C          11.4515   37.7371   10.1533 C.3     1  UNL1        0.0742
     13 C          12.6140   36.9656    9.5406 C.3     1  UNL1        0.0437
     14 C          13.4728   36.3069   10.6141 C.3     1  UNL1        0.1289
     15 C          15.5622   37.2203    9.6348 C.ar    1  UNL1        0.0967
     16 C          16.7231   37.7982   10.1175 C.ar    1  UNL1        0.0427
     17 C          16.5654   37.8263   11.4958 C.ar    1  UNL1        0.1217
     18 N          14.7814   36.9379   10.6883 N.ar    1  UNL1       -0.2494
     19 N          15.3720   37.2922   11.8137 N.ar    1  UNL1       -0.1677
     20 O          13.2164   44.0753    5.8198 O.2     1  UNL1       -0.2697
     21 C          13.9180   43.1310    6.2748 C.2     1  UNL1        0.2521
     22 N          13.3156   41.8727    6.6071 N.am    1  UNL1       -0.2660
     23 H          13.9079   41.1700    6.9602 H       1  UNL1        0.1566
     24 C          15.3662   43.3214    6.4663 C.ar    1  UNL1        0.0728
     25 C          16.1128   44.0912    5.5644 C.ar    1  UNL1        0.1034
     26 C          18.1004   43.6980    6.8020 C.ar    1  UNL1        0.0989
     27 C          17.3976   42.9229    7.7262 C.ar    1  UNL1        0.0208
     28 C          16.0252   42.7364    7.5541 C.ar    1  UNL1        0.0077
     29 N          17.4497   44.2614    5.7492 N.ar    1  UNL1       -0.2422
@<TRIPOS>BOND
     1    21    22   am
     2    21    24    1
     3     2     3   ar
     4     6     5    1
     5     6     7    1
     6     7     8    1
     7     8    11    1
     8    12    11    1
     9    12    13    1
    10    13    14    1
    11    14    18    1
    12    16    17   ar
    13     9    11    1
    14     9    10    1
    15    10     6    1
    16    25    29   ar
    17    26    27   ar
    18    28    24   ar
    19    22     1    1
    20     5     4   ar
    21     5     1   ar
    22    18    15   ar
    23    18    19   ar
    24    21    20    2
    25     1     2   ar
    26     3     4   ar
    27    15    16   ar
    28    17    19   ar
    29    24    25   ar
    30    26    29   ar
    31    27    28   ar
    32    22    23    1
@<TRIPOS>MOLECULE
MolPort-005-164-924 11753617 CSSS00159809594 MCULE-5538880029 PubChem-42147430 ZINC000011753617
 29 32 0 0 0
SMALL
GASTEIGER

@<TRIPOS>ATOM
      1 C           9.2710   42.6120    9.9786 C.ar    1  UNL1        0.1328
      2 C           9.7120   43.9086   10.1661 C.ar    1  UNL1        0.0565
      3 C          11.0184   43.8759    9.6912 C.ar    1  UNL1        0.1230
      4 N          11.3140   42.6328    9.2560 N.ar    1  UNL1       -0.1666
      5 N          10.2459   41.8748    9.4292 N.ar    1  UNL1       -0.2394
      6 C          10.1696   40.4502    9.1148 C.3     1  UNL1        0.1093
      7 C          10.8001   40.1464    7.7462 C.3     1  UNL1        0.0418
      8 C          12.2030   39.5466    7.8622 C.3     1  UNL1        0.0741
      9 C          12.2907   39.5148   10.2352 C.3     1  UNL1        0.0741
     10 C          10.7530   39.6025   10.2536 C.3     1  UNL1        0.0418
     11 N          12.8834   40.0978    9.0292 N.3     1  UNL1       -0.2725
     12 C          14.2660   39.6509    8.9812 C.3     1  UNL1        0.0742
     13 C          15.2071   40.8453    8.8838 C.3     1  UNL1        0.0437
     14 C          14.7802   41.8021    7.7764 C.3     1  UNL1        0.1289
     15 C          17.1094   42.6514    7.8868 C.ar    1  UNL1        0.0967
     16 C          17.7888   43.7682    7.4331 C.ar    1  UNL1        0.0427
     17 C          16.8355   44.5224    6.7639 C.ar    1  UNL1        0.1217
     18 N          15.8329   42.7643    7.4904 N.ar    1  UNL1       -0.2494
     19 N          15.6517   43.8851    6.8182 N.ar    1  UNL1       -0.1677
     20 O           6.9328   42.4701    8.2524 O.2     1  UNL1       -0.2697
     21 C           6.8453   42.0394    9.4347 C.2     1  UNL1        0.2521
     22 N           7.9776   42.0923   10.3132 N.am    1  UNL1       -0.2660
     23 H           7.8561   41.7414   11.2250 H       1  UNL1        0.1566
     24 C           5.5715   41.4782    9.9170 C.ar    1  UNL1        0.0728
     25 C           5.4847   40.8828   11.1825 C.ar    1  UNL1        0.1034
     26 C           3.1812   40.4105   10.8538 C.ar    1  UNL1        0.0989
     27 C           3.2202   40.9940    9.5862 C.ar    1  UNL1        0.0208
     28 C           4.4220   41.5288    9.1197 C.ar    1  UNL1        0.0077
     29 N           4.3043   40.3670   11.6196 N.ar    1  UNL1       -0.2422
@<TRIPOS>BOND
     1    21    22   am
     2    21    24    1
     3     2     3   ar
     4     6     5    1
     5     6     7    1
     6     7     8    1
     7     8    11    1
     8    12    11    1
     9    12    13    1
    10    13    14    1
    11    14    18    1
    12    16    17   ar
    13     9    11    1
    14     9    10    1
    15    10     6    1
    16    25    29   ar
    17    26    27   ar
    18    28    24   ar
    19    22     1    1
    20     5     4   ar
    21     5     1   ar
    22    18    15   ar
    23    18    19   ar
    24    21    20    2
    25     1     2   ar
    26     3     4   ar
    27    15    16   ar
    28    17    19   ar
    29    24    25   ar
    30    26    29   ar
    31    27    28   ar
    32    22    23    1
@<TRIPOS>MOLECULE
MolPort-005-164-924 11753617 CSSS00159809594 MCULE-5538880029 PubChem-42147430 ZINC000011753617
 29 32 0 0 0
SMALL
GASTEIGER

@<TRIPOS>ATOM
      1 C          11.8210   41.8618    7.2146 C.ar    1  UNL1        0.1328
      2 C          11.2338   41.4384    6.0370 C.ar    1  UNL1        0.0565
      3 C           9.8770   41.4241    6.3411 C.ar    1  UNL1        0.1230
      4 N           9.6926   41.8156    7.6196 N.ar    1  UNL1       -0.1666
      5 N          10.8770   42.0844    8.1393 N.ar    1  UNL1       -0.2394
      6 C          11.1107   42.5072    9.5181 C.3     1  UNL1        0.1093
      7 C          10.2418   43.7212    9.8842 C.3     1  UNL1        0.0418
      8 C           9.0199   43.3415   10.7232 C.3     1  UNL1        0.0741
      9 C           9.4843   41.0158   10.8446 C.3     1  UNL1        0.0741
     10 C          10.9498   41.3302   10.4901 C.3     1  UNL1        0.0418
     11 N           8.5442   42.0176   10.3365 N.3     1  UNL1       -0.2725
     12 C           7.2793   41.7913   11.0164 C.3     1  UNL1        0.0742
     13 C           6.1953   41.4202   10.0118 C.3     1  UNL1        0.0437
     14 C           4.9141   42.2087   10.2582 C.3     1  UNL1        0.1289
     15 C           5.7069   43.7009    8.4406 C.ar    1  UNL1        0.0967
     16 C           5.1503   44.6799    7.6367 C.ar    1  UNL1        0.0427
     17 C           3.8214   44.7554    8.0288 C.ar    1  UNL1        0.1217
     18 N           4.7394   43.2399    9.2472 N.ar    1  UNL1       -0.2494
     19 N           3.6017   43.8665    9.0147 N.ar    1  UNL1       -0.1677
     20 O          13.5406   43.9340    6.1118 O.2     1  UNL1       -0.2697
     21 C          14.0405   43.0771    6.8907 C.2     1  UNL1        0.2521
     22 N          13.2228   42.0422    7.4539 N.am    1  UNL1       -0.2660
     23 H          13.6622   41.4001    8.0572 H       1  UNL1        0.1566
     24 C          15.4739   43.1391    7.2246 C.ar    1  UNL1        0.0728
     25 C          16.2748   44.1870    6.7514 C.ar    1  UNL1        0.1034
     26 C          18.1820   43.2822    7.8382 C.ar    1  UNL1        0.0989
     27 C          17.4234   42.2195    8.3320 C.ar    1  UNL1        0.0208
     28 C          16.0644   42.1514    8.0218 C.ar    1  UNL1        0.0077
     29 N          17.5977   44.2361    7.0648 N.ar    1  UNL1       -0.2422
@<TRIPOS>BOND
     1    21    22   am
     2    21    24    1
     3     2     3   ar
     4     6     5    1
     5     6     7    1
     6     7     8    1
     7     8    11    1
     8    12    11    1
     9    12    13    1
    10    13    14    1
    11    14    18    1
    12    16    17   ar
    13     9    11    1
    14     9    10    1
    15    10     6    1
    16    25    29   ar
    17    26    27   ar
    18    28    24   ar
    19    22     1    1
    20     5     4   ar
    21     5     1   ar
    22    18    15   ar
    23    18    19   ar
    24    21    20    2
    25     1     2   ar
    26     3     4   ar
    27    15    16   ar
    28    17    19   ar
    29    24    25   ar
    30    26    29   ar
    31    27    28   ar
    32    22    23    1
@<TRIPOS>MOLECULE
MolPort-005-164-924 11753617 CSSS00159809594 MCULE-5538880029 PubChem-42147430 ZINC000011753617
 29 32 0 0 0
SMALL
GASTEIGER

@<TRIPOS>ATOM
      1 C          13.3630   39.9121    9.5770 C.ar    1  UNL1        0.1328
      2 C          13.7432   39.2755   10.7437 C.ar    1  UNL1        0.0565
      3 C          12.7253   38.3515   10.9524 C.ar    1  UNL1        0.1230
      4 N          11.8111   38.4499    9.9643 N.ar    1  UNL1       -0.1666
      5 N          12.2095   39.3952    9.1319 N.ar    1  UNL1       -0.2394
      6 C          11.4752   39.8322    7.9469 C.3     1  UNL1        0.1093
      7 C          10.0272   39.3170    7.9664 C.3     1  UNL1        0.0418
      8 C           9.0231   40.3929    8.3855 C.3     1  UNL1        0.0741
      9 C          10.5999   42.1484    8.6528 C.3     1  UNL1        0.0741
     10 C          11.5762   41.3531    7.7659 C.3     1  UNL1        0.0418
     11 N           9.6374   41.2951    9.3536 N.3     1  UNL1       -0.2725
     12 C           8.5925   42.1684    9.8622 C.3     1  UNL1        0.0742
     13 C           7.2188   41.5694    9.5867 C.3     1  UNL1        0.0437
     14 C           6.3741   41.5063   10.8542 C.3     1  UNL1        0.1289
     15 C           4.0107   42.0840   11.3432 C.ar    1  UNL1        0.0967
     16 C           2.7967   41.9648   10.6899 C.ar    1  UNL1        0.0427
     17 C           3.0991   41.3682    9.4742 C.ar    1  UNL1        0.1217
     18 N           4.9570   41.5830   10.5353 N.ar    1  UNL1       -0.2494
     19 N           4.4245   41.1452    9.4103 N.ar    1  UNL1       -0.1677
     20 O          16.2404   40.1694    9.2289 O.2     1  UNL1       -0.2697
     21 C          15.4868   41.0671    8.7627 C.2     1  UNL1        0.2521
     22 N          14.0639   40.9726    8.9146 N.am    1  UNL1       -0.2660
     23 H          13.5215   41.6991    8.5307 H       1  UNL1        0.1566
     24 C          16.0717   42.2206    8.0574 C.ar    1  UNL1        0.0728
     25 C          15.3570   42.8811    7.0493 C.ar    1  UNL1        0.1034
     26 C          17.1499   44.4001    6.7091 C.ar    1  UNL1        0.0989
     27 C          17.8989   43.7732    7.7065 C.ar    1  UNL1        0.0208
     28 C          17.3540   42.6796    8.3809 C.ar    1  UNL1        0.0077
     29 N          15.9052   43.9455    6.4033 N.ar    1  UNL1       -0.2422
@<TRIPOS>BOND
     1    21    22   am
     2    21    24    1
     3     2     3   ar
     4     6     5    1
     5     6     7    1
     6     7     8    1
     7     8    11    1
     8    12    11    1
     9    12    13    1
    10    13    14    1
    11    14    18    1
    12    16    17   ar
    13     9    11    1
    14     9    10    1
    15    10     6    1
    16    25    29   ar
    17    26    27   ar
    18    28    24   ar
    19    22     1    1
    20     5     4   ar
    21     5     1   ar
    22    18    15   ar
    23    18    19   ar
    24    21    20    2
    25     1     2   ar
    26     3     4   ar
    27    15    16   ar
    28    17    19   ar
    29    24    25   ar
    30    26    29   ar
    31    27    28   ar
    32    22    23    1
@<TRIPOS>MOLECULE
MolPort-005-164-924 11753617 CSSS00159809594 MCULE-5538880029 PubChem-42147430 ZINC000011753617
 29 32 0 0 0
SMALL
GASTEIGER

@<TRIPOS>ATOM
      1 C          11.3066   41.6940    7.0592 C.ar    1  UNL1        0.1328
      2 C          10.5831   40.9898    6.1150 C.ar    1  UNL1        0.0565
      3 C           9.4847   40.5270    6.8311 C.ar    1  UNL1        0.1230
      4 N           9.5701   40.9396    8.1134 N.ar    1  UNL1       -0.1666
      5 N          10.6756   41.6515    8.2406 N.ar    1  UNL1       -0.2394
      6 C          11.1488   42.2488    9.4871 C.3     1  UNL1        0.1093
      7 C          10.3661   43.5277    9.8252 C.3     1  UNL1        0.0418
      8 C           9.3060   43.3032   10.9055 C.3     1  UNL1        0.0741
      9 C           9.7668   41.0016   11.2659 C.3     1  UNL1        0.0741
     10 C          11.1507   41.2192   10.6255 C.3     1  UNL1        0.0418
     11 N           8.7603   41.9549   10.7928 N.3     1  UNL1       -0.2725
     12 C           7.6314   41.8621   11.7040 C.3     1  UNL1        0.0742
     13 C           6.3736   41.4469   10.9508 C.3     1  UNL1        0.0437
     14 C           6.5443   41.6165    9.4454 C.3     1  UNL1        0.1289
     15 C           6.0915   43.6492    8.0958 C.ar    1  UNL1        0.0967
     16 C           5.0097   44.4843    7.8784 C.ar    1  UNL1        0.0427
     17 C           3.9854   43.9551    8.6504 C.ar    1  UNL1        0.1217
     18 N           5.6986   42.6899    8.9470 N.ar    1  UNL1       -0.2494
     19 N           4.4370   42.8624    9.2926 N.ar    1  UNL1       -0.1677
     20 O          13.9507   40.8294    7.9127 O.2     1  UNL1       -0.2697
     21 C          13.8376   41.9184    7.2863 C.2     1  UNL1        0.2521
     22 N          12.5504   42.3752    6.8493 N.am    1  UNL1       -0.2660
     23 H          12.5180   43.2307    6.3631 H       1  UNL1        0.1566
     24 C          15.0356   42.7269    7.0014 C.ar    1  UNL1        0.0728
     25 C          15.0257   43.6867    5.9806 C.ar    1  UNL1        0.1034
     26 C          17.2814   44.2673    6.4409 C.ar    1  UNL1        0.0989
     27 C          17.3378   43.3230    7.4675 C.ar    1  UNL1        0.0208
     28 C          16.2083   42.5519    7.7457 C.ar    1  UNL1        0.0077
     29 N          16.1368   44.4287    5.7245 N.ar    1  UNL1       -0.2422
@<TRIPOS>BOND
     1    21    22   am
     2    21    24    1
     3     2     3   ar
     4     6     5    1
     5     6     7    1
     6     7     8    1
     7     8    11    1
     8    12    11    1
     9    12    13    1
    10    13    14    1
    11    14    18    1
    12    16    17   ar
    13     9    11    1
    14     9    10    1
    15    10     6    1
    16    25    29   ar
    17    26    27   ar
    18    28    24   ar
    19    22     1    1
    20     5     4   ar
    21     5     1   ar
    22    18    15   ar
    23    18    19   ar
    24    21    20    2
    25     1     2   ar
    26     3     4   ar
    27    15    16   ar
    28    17    19   ar
    29    24    25   ar
    30    26    29   ar
    31    27    28   ar
    32    22    23    1
@<TRIPOS>MOLECULE
MolPort-005-164-924 11753617 CSSS00159809594 MCULE-5538880029 PubChem-42147430 ZINC000011753617
 29 32 0 0 0
SMALL
GASTEIGER

@<TRIPOS>ATOM
      1 C          12.0732   40.3490    8.6614 C.ar    1  UNL1        0.1328
      2 C          12.3654   39.8967    9.9346 C.ar    1  UNL1        0.0565
      3 C          11.4927   38.8276   10.1043 C.ar    1  UNL1        0.1230
      4 N          10.7406   38.6728    8.9942 N.ar    1  UNL1       -0.1666
      5 N          11.1040   39.5967    8.1226 N.ar    1  UNL1       -0.2394
      6 C          10.5025   39.7885    6.8051 C.3     1  UNL1        0.1093
      7 C           9.3834   38.7665    6.5486 C.3     1  UNL1        0.0418
      8 C           7.9860   39.3618    6.7337 C.3     1  UNL1        0.0741
      9 C           8.6962   41.5642    7.2671 C.3     1  UNL1        0.0741
     10 C          10.0524   41.2431    6.6114 C.3     1  UNL1        0.0418
     11 N           8.0133   40.3754    7.7827 N.3     1  UNL1       -0.2725
     12 C           6.6384   40.7632    8.0523 C.3     1  UNL1        0.0742
     13 C           6.5653   41.6205    9.3098 C.3     1  UNL1        0.0437
     14 C           5.1277   42.0090    9.6363 C.3     1  UNL1        0.1289
     15 C           5.5485   43.9388    8.1339 C.ar    1  UNL1        0.0967
     16 C           4.7999   44.9749    7.6038 C.ar    1  UNL1        0.0427
     17 C           3.5176   44.7819    8.0975 C.ar    1  UNL1        0.1217
     18 N           4.7294   43.1914    8.8886 N.ar    1  UNL1       -0.2494
     19 N           3.5067   43.6875    8.8801 N.ar    1  UNL1       -0.1677
     20 O          14.9199   40.8265    8.2936 O.2     1  UNL1       -0.2697
     21 C          14.0962   41.6586    7.8245 C.2     1  UNL1        0.2521
     22 N          12.6858   41.4550    7.9858 N.am    1  UNL1       -0.2660
     23 H          12.0864   42.1335    7.5991 H       1  UNL1        0.1566
     24 C          14.5856   42.8478    7.1060 C.ar    1  UNL1        0.0728
     25 C          13.7308   43.5853    6.2760 C.ar    1  UNL1        0.1034
     26 C          15.4812   45.0963    5.7374 C.ar    1  UNL1        0.0989
     27 C          16.3690   44.3927    6.5532 C.ar    1  UNL1        0.0208
     28 C          15.9154   43.2646    7.2385 C.ar    1  UNL1        0.0077
     29 N          14.1915   44.6821    5.6163 N.ar    1  UNL1       -0.2422
@<TRIPOS>BOND
     1    21    22   am
     2    21    24    1
     3     2     3   ar
     4     6     5    1
     5     6     7    1
     6     7     8    1
     7     8    11    1
     8    12    11    1
     9    12    13    1
    10    13    14    1
    11    14    18    1
    12    16    17   ar
    13     9    11    1
    14     9    10    1
    15    10     6    1
    16    25    29   ar
    17    26    27   ar
    18    28    24   ar
    19    22     1    1
    20     5     4   ar
    21     5     1   ar
    22    18    15   ar
    23    18    19   ar
    24    21    20    2
    25     1     2   ar
    26     3     4   ar
    27    15    16   ar
    28    17    19   ar
    29    24    25   ar
    30    26    29   ar
    31    27    28   ar
    32    22    23    1
@<TRIPOS>MOLECULE
MolPort-005-164-924 11753617 CSSS00159809594 MCULE-5538880029 PubChem-42147430 ZINC000011753617
 29 32 0 0 0
SMALL
GASTEIGER

@<TRIPOS>ATOM
      1 C           9.2411   41.1399   10.3462 C.ar    1  UNL1        0.1328
      2 C           9.8472   41.5261   11.5270 C.ar    1  UNL1        0.0565
      3 C          11.1514   41.0655   11.3848 C.ar    1  UNL1        0.1230
      4 N          11.2893   40.4489   10.1920 N.ar    1  UNL1       -0.1666
      5 N          10.1267   40.5042    9.5669 N.ar    1  UNL1       -0.2394
      6 C           9.8506   39.9178    8.2577 C.3     1  UNL1        0.1093
      7 C           9.2814   40.9645    7.2865 C.3     1  UNL1        0.0418
      8 C          10.3258   41.4783    6.2932 C.3     1  UNL1        0.0741
      9 C          12.1207   40.1260    7.0607 C.3     1  UNL1        0.0741
     10 C          11.0849   39.1885    7.7092 C.3     1  UNL1        0.0418
     11 N          11.6409   41.5032    6.9244 N.3     1  UNL1       -0.2725
     12 C          12.5508   42.1779    6.0132 C.3     1  UNL1        0.0742
     13 C          13.7820   42.6732    6.7621 C.3     1  UNL1        0.0437
     14 C          14.3941   43.8929    6.0825 C.3     1  UNL1        0.1289
     15 C          16.4265   43.9280    7.5063 C.ar    1  UNL1        0.0967
     16 C          17.7923   44.0027    7.2972 C.ar    1  UNL1        0.0427
     17 C          17.9429   44.0634    5.9191 C.ar    1  UNL1        0.1217
     18 N          15.8309   43.9414    6.3045 N.ar    1  UNL1       -0.2494
     19 N          16.7284   44.0266    5.3411 N.ar    1  UNL1       -0.1677
     20 O           6.9338   41.2445   12.1161 O.2     1  UNL1       -0.2697
     21 C           6.7600   41.4046   10.8771 C.2     1  UNL1        0.2521
     22 N           7.8741   41.3605    9.9752 N.am    1  UNL1       -0.2660
     23 H           7.6837   41.4933    9.0184 H       1  UNL1        0.1566
     24 C           5.4035   41.6385   10.3523 C.ar    1  UNL1        0.0728
     25 C           4.3907   40.6878   10.5361 C.ar    1  UNL1        0.1034
     26 C           2.8344   42.0524    9.3729 C.ar    1  UNL1        0.0989
     27 C           3.8114   43.0277    9.1658 C.ar    1  UNL1        0.0208
     28 C           5.0998   42.8161    9.6590 C.ar    1  UNL1        0.0077
     29 N           3.1410   40.9122   10.0478 N.ar    1  UNL1       -0.2422
@<TRIPOS>BOND
     1    21    22   am
     2    21    24    1
     3     2     3   ar
     4     6     5    1
     5     6     7    1
     6     7     8    1
     7     8    11    1
     8    12    11    1
     9    12    13    1
    10    13    14    1
    11    14    18    1
    12    16    17   ar
    13     9    11    1
    14     9    10    1
    15    10     6    1
    16    25    29   ar
    17    26    27   ar
    18    28    24   ar
    19    22     1    1
    20     5     4   ar
    21     5     1   ar
    22    18    15   ar
    23    18    19   ar
    24    21    20    2
    25     1     2   ar
    26     3     4   ar
    27    15    16   ar
    28    17    19   ar
    29    24    25   ar
    30    26    29   ar
    31    27    28   ar
    32    22    23    1
@<TRIPOS>MOLECULE
MolPort-005-164-924 11753617 CSSS00159809594 MCULE-5538880029 PubChem-42147430 ZINC000011753617
 29 32 0 0 0
SMALL
GASTEIGER

@<TRIPOS>ATOM
      1 C          12.1238   41.0740    6.9549 C.ar    1  UNL1        0.1328
      2 C          11.3593   40.9806    5.8069 C.ar    1  UNL1        0.0565
      3 C          10.1471   40.4788    6.2678 C.ar    1  UNL1        0.1230
      4 N          10.2092   40.2930    7.6033 N.ar    1  UNL1       -0.1666
      5 N          11.4101   40.6622    8.0116 N.ar    1  UNL1       -0.2394
      6 C          11.8879   40.5817    9.3898 C.3     1  UNL1        0.1093
      7 C          11.1314   39.5022   10.1804 C.3     1  UNL1        0.0418
      8 C          11.9391   38.2126   10.3409 C.3     1  UNL1        0.0741
      9 C          13.8809   38.9630    9.1981 C.3     1  UNL1        0.0741
     10 C          13.4126   40.4110    9.4353 C.3     1  UNL1        0.0418
     11 N          12.7762   38.0017    9.1648 N.3     1  UNL1       -0.2725
     12 C          13.3662   36.6780    9.2792 C.3     1  UNL1        0.0742
     13 C          14.5988   36.5672    8.3902 C.3     1  UNL1        0.0437
     14 C          15.6106   35.5803    8.9613 C.3     1  UNL1        0.1289
     15 C          18.0554   35.7979    8.5949 C.ar    1  UNL1        0.0967
     16 C          19.0577   36.6521    9.0197 C.ar    1  UNL1        0.0427
     17 C          18.4224   37.5728    9.8408 C.ar    1  UNL1        0.1217
     18 N          16.9058   36.2163    9.1451 N.ar    1  UNL1       -0.2494
     19 N          17.1106   37.2792    9.8996 N.ar    1  UNL1       -0.1677
     20 O          13.1606   43.6718    6.1524 O.2     1  UNL1       -0.2697
     21 C          13.9557   42.8206    6.6365 C.2     1  UNL1        0.2521
     22 N          13.4797   41.5306    7.0438 N.am    1  UNL1       -0.2660
     23 H          14.1415   40.9044    7.4169 H       1  UNL1        0.1566
     24 C          15.3831   43.1534    6.7846 C.ar    1  UNL1        0.0728
     25 C          16.1313   42.6390    7.8518 C.ar    1  UNL1        0.1034
     26 C          18.0783   43.7642    7.0900 C.ar    1  UNL1        0.0989
     27 C          17.3729   44.2999    6.0110 C.ar    1  UNL1        0.0208
     28 C          16.0202   43.9908    5.8613 C.ar    1  UNL1        0.0077
     29 N          17.4490   42.9518    7.9807 N.ar    1  UNL1       -0.2422
@<TRIPOS>BOND
     1    21    22   am
     2    21    24    1
     3     2     3   ar
     4     6     5    1
     5     6     7    1
     6     7     8    1
     7     8    11    1
     8    12    11    1
     9    12    13    1
    10    13    14    1
    11    14    18    1
    12    16    17   ar
    13     9    11    1
    14     9    10    1
    15    10     6    1
    16    25    29   ar
    17    26    27   ar
    18    28    24   ar
    19    22     1    1
    20     5     4   ar
    21     5     1   ar
    22    18    15   ar
    23    18    19   ar
    24    21    20    2
    25     1     2   ar
    26     3     4   ar
    27    15    16   ar
    28    17    19   ar
    29    24    25   ar
    30    26    29   ar
    31    27    28   ar
    32    22    23    1
