@<TRIPOS>MOLECULE
Molport-053-349-738
 17 18 0 0 0
SMALL
GASTEIGER

@<TRIPOS>ATOM
      1 C          10.3656   41.3878    5.7680 C.3     1  UNL1        0.1537
      2 C          13.6860   41.9444    6.9707 C.ar    1  UNL1        0.1555
      3 C          13.3600   40.8527    7.7512 C.ar    1  UNL1        0.0508
      4 C          14.0542   40.1417    8.7282 C.ar    1  UNL1        0.0048
      5 C          13.3943   39.0564    9.3348 C.ar    1  UNL1        0.0069
      6 C          12.0745   38.7143    8.9553 C.ar    1  UNL1        0.0361
      7 C          11.4024   39.4563    7.9640 C.ar    1  UNL1        0.0255
      8 C          12.0848   40.5254    7.3817 C.ar    1  UNL1        0.0812
      9 N          11.6653   41.3799    6.4280 N.ar    1  UNL1       -0.2476
     10 N          12.6348   42.2526    6.1725 N.ar    1  UNL1       -0.1540
     11 BR         11.1979   37.2387    9.7919 Br      1  UNL1       -0.0489
     12 C          15.2443   43.7271    6.0883 C.2     1  UNL1        0.2507
     13 N          14.9251   42.6677    7.0078 N.am    1  UNL1       -0.2644
     14 O          14.5603   43.8811    5.0411 O.2     1  UNL1       -0.2698
     15 H          15.5879   42.4275    7.6949 H       1  UNL1        0.1566
     16 C          16.3896   44.6314    6.3116 C.2     1  UNL1        0.0581
     17 C          17.5777   44.2205    6.7529 C.2     1  UNL1        0.0048
@<TRIPOS>BOND
     1     1     9    1
     2     2    13    1
     3     2     3   ar
     4    12    16    1
     5     4     5   ar
     6     6    11    1
     7     6     7   ar
     8     8     9   ar
     9     8     3   ar
    10     9    10   ar
    11    13    12   am
    12     2    10   ar
    13    12    14    2
    14    16    17    2
    15     3     4   ar
    16     5     6   ar
    17     7     8   ar
    18    13    15    1
@<TRIPOS>MOLECULE
Molport-053-349-738
 17 18 0 0 0
SMALL
GASTEIGER

@<TRIPOS>ATOM
      1 C          17.1897   39.4657   10.8433 C.3     1  UNL1        0.1537
      2 C          14.0214   39.7642    9.2143 C.ar    1  UNL1        0.1555
      3 C          14.6753   40.8116    8.5956 C.ar    1  UNL1        0.0508
      4 C          14.2838   41.7412    7.6341 C.ar    1  UNL1        0.0048
      5 C          15.2354   42.6948    7.2261 C.ar    1  UNL1        0.0069
      6 C          16.5367   42.6957    7.7827 C.ar    1  UNL1        0.0361
      7 C          16.8976   41.7411    8.7539 C.ar    1  UNL1        0.0255
      8 C          15.9315   40.8091    9.1358 C.ar    1  UNL1        0.0812
      9 N          16.0261   39.8109   10.0359 N.ar    1  UNL1       -0.2476
     10 N          14.8636   39.1690   10.0938 N.ar    1  UNL1       -0.1540
     11 BR         17.8115   43.9990    7.2153 Br      1  UNL1       -0.0489
     12 C          11.5358   40.1873    9.3796 C.2     1  UNL1        0.2507
     13 N          12.6579   39.3737    8.9944 N.am    1  UNL1       -0.2644
     14 O          11.6997   41.1543   10.1711 O.2     1  UNL1       -0.2698
     15 H          12.4823   38.5082    8.5595 H       1  UNL1        0.1566
     16 C          10.1680   39.9006    8.9039 C.2     1  UNL1        0.0581
     17 C           9.7639   40.1115    7.6520 C.2     1  UNL1        0.0048
@<TRIPOS>BOND
     1     1     9    1
     2     2    13    1
     3     2     3   ar
     4    12    16    1
     5     4     5   ar
     6     6    11    1
     7     6     7   ar
     8     8     9   ar
     9     8     3   ar
    10     9    10   ar
    11    13    12   am
    12     2    10   ar
    13    12    14    2
    14    16    17    2
    15     3     4   ar
    16     5     6   ar
    17     7     8   ar
    18    13    15    1
@<TRIPOS>MOLECULE
Molport-053-349-738
 17 18 0 0 0
SMALL
GASTEIGER

@<TRIPOS>ATOM
      1 C          14.7443   39.6164    9.9791 C.3     1  UNL1        0.1537
      2 C          12.5002   40.8002    7.4605 C.ar    1  UNL1        0.1555
      3 C          13.5570   41.6561    7.2194 C.ar    1  UNL1        0.0508
      4 C          13.7546   42.6877    6.3037 C.ar    1  UNL1        0.0048
      5 C          14.9867   43.3671    6.3454 C.ar    1  UNL1        0.0069
      6 C          15.9766   43.0036    7.2893 C.ar    1  UNL1        0.0361
      7 C          15.7419   41.9556    8.2012 C.ar    1  UNL1        0.0255
      8 C          14.5108   41.3019    8.1330 C.ar    1  UNL1        0.0812
      9 N          14.0484   40.2850    8.8866 N.ar    1  UNL1       -0.2476
     10 N          12.8198   39.9737    8.4860 N.ar    1  UNL1       -0.1540
     11 BR         17.6405   43.9393    7.3288 Br      1  UNL1       -0.0489
     12 C          10.1164   41.5873    7.1727 C.2     1  UNL1        0.2507
     13 N          11.2448   40.7937    6.7648 N.am    1  UNL1       -0.2644
     14 O          10.0971   42.1156    8.3168 O.2     1  UNL1       -0.2698
     15 H          11.1515   40.2189    5.9710 H       1  UNL1        0.1566
     16 C           8.9417   41.7755    6.2986 C.2     1  UNL1        0.0581
     17 C           7.9054   40.9387    6.2669 C.2     1  UNL1        0.0048
@<TRIPOS>BOND
     1     1     9    1
     2     2    13    1
     3     2     3   ar
     4    12    16    1
     5     4     5   ar
     6     6    11    1
     7     6     7   ar
     8     8     9   ar
     9     8     3   ar
    10     9    10   ar
    11    13    12   am
    12     2    10   ar
    13    12    14    2
    14    16    17    2
    15     3     4   ar
    16     5     6   ar
    17     7     8   ar
    18    13    15    1
@<TRIPOS>MOLECULE
Molport-053-349-738
 17 18 0 0 0
SMALL
GASTEIGER

@<TRIPOS>ATOM
      1 C           9.8492   40.6253    5.1614 C.3     1  UNL1        0.1537
      2 C          12.6605   42.0443    6.8536 C.ar    1  UNL1        0.1555
      3 C          11.7352   42.1297    7.8753 C.ar    1  UNL1        0.0508
      4 C          11.8026   42.6129    9.1806 C.ar    1  UNL1        0.0048
      5 C          10.6333   42.5429    9.9612 C.ar    1  UNL1        0.0069
      6 C           9.4418   41.9998    9.4242 C.ar    1  UNL1        0.0361
      7 C           9.4099   41.5212    8.0995 C.ar    1  UNL1        0.0255
      8 C          10.5860   41.6042    7.3528 C.ar    1  UNL1        0.0812
      9 N          10.8100   41.2242    6.0795 N.ar    1  UNL1       -0.2476
     10 N          12.0731   41.4922    5.7640 N.ar    1  UNL1       -0.1540
     11 BR          7.8670   41.9153   10.5005 Br      1  UNL1       -0.0489
     12 C          14.4599   43.7499    6.3657 C.2     1  UNL1        0.2507
     13 N          14.0229   42.4921    6.9103 N.am    1  UNL1       -0.2644
     14 O          13.7138   44.3889    5.5761 O.2     1  UNL1       -0.2698
     15 H          14.6900   41.9110    7.3423 H       1  UNL1        0.1566
     16 C          15.7910   44.3096    6.6729 C.2     1  UNL1        0.0581
     17 C          16.9059   43.9496    6.0385 C.2     1  UNL1        0.0048
@<TRIPOS>BOND
     1     1     9    1
     2     2    13    1
     3     2     3   ar
     4    12    16    1
     5     4     5   ar
     6     6    11    1
     7     6     7   ar
     8     8     9   ar
     9     8     3   ar
    10     9    10   ar
    11    13    12   am
    12     2    10   ar
    13    12    14    2
    14    16    17    2
    15     3     4   ar
    16     5     6   ar
    17     7     8   ar
    18    13    15    1
@<TRIPOS>MOLECULE
Molport-053-349-738
 17 18 0 0 0
SMALL
GASTEIGER

@<TRIPOS>ATOM
      1 C          14.7554   42.1900    7.0539 C.3     1  UNL1        0.1537
      2 C          11.6516   41.8471    8.7946 C.ar    1  UNL1        0.1555
      3 C          12.4239   41.0095    9.5751 C.ar    1  UNL1        0.0508
      4 C          12.1464   40.2343   10.6994 C.ar    1  UNL1        0.0048
      5 C          13.2026   39.4826   11.2478 C.ar    1  UNL1        0.0069
      6 C          14.4920   39.5233   10.6659 C.ar    1  UNL1        0.0361
      7 C          14.7363   40.3178    9.5283 C.ar    1  UNL1        0.0255
      8 C          13.6684   41.0516    9.0098 C.ar    1  UNL1        0.0812
      9 N          13.6435   41.8723    7.9414 N.ar    1  UNL1       -0.2476
     10 N          12.4153   42.3603    7.7994 N.ar    1  UNL1       -0.1540
     11 BR         15.9100   38.4949   11.4257 Br      1  UNL1       -0.0489
     12 C           9.7621   43.2939    9.6441 C.2     1  UNL1        0.2507
     13 N          10.2540   42.1183    8.9765 N.am    1  UNL1       -0.2644
     14 O          10.5439   44.0003   10.3357 O.2     1  UNL1       -0.2698
     15 H           9.6011   41.4691    8.6280 H       1  UNL1        0.1566
     16 C           8.3407   43.6871    9.5795 C.2     1  UNL1        0.0581
     17 C           7.9265   44.8915    9.1883 C.2     1  UNL1        0.0048
@<TRIPOS>BOND
     1     1     9    1
     2     2    13    1
     3     2     3   ar
     4    12    16    1
     5     4     5   ar
     6     6    11    1
     7     6     7   ar
     8     8     9   ar
     9     8     3   ar
    10     9    10   ar
    11    13    12   am
    12     2    10   ar
    13    12    14    2
    14    16    17    2
    15     3     4   ar
    16     5     6   ar
    17     7     8   ar
    18    13    15    1
@<TRIPOS>MOLECULE
Molport-053-349-738
 17 18 0 0 0
SMALL
GASTEIGER

@<TRIPOS>ATOM
      1 C          10.3220   41.4507    5.7967 C.3     1  UNL1        0.1537
      2 C          12.1953   39.8154    8.3653 C.ar    1  UNL1        0.1555
      3 C          13.1463   40.7326    7.9632 C.ar    1  UNL1        0.0508
      4 C          14.4512   40.9923    8.3775 C.ar    1  UNL1        0.0048
      5 C          15.1464   42.0283    7.7258 C.ar    1  UNL1        0.0069
      6 C          14.5285   42.7679    6.6894 C.ar    1  UNL1        0.0361
      7 C          13.2074   42.4771    6.2956 C.ar    1  UNL1        0.0255
      8 C          12.5457   41.4449    6.9623 C.ar    1  UNL1        0.0812
      9 N          11.2966   40.9768    6.7717 N.ar    1  UNL1       -0.2476
     10 N          11.0742   39.9791    7.6213 N.ar    1  UNL1       -0.1540
     11 BR         15.4905   44.1683    5.8182 Br      1  UNL1       -0.0489
     12 C          11.5240   37.6560    9.4928 C.2     1  UNL1        0.2507
     13 N          12.3619   38.8206    9.3862 N.am    1  UNL1       -0.2644
     14 O          10.4376   37.6000    8.8564 O.2     1  UNL1       -0.2698
     15 H          13.0838   38.9408   10.0448 H       1  UNL1        0.1566
     16 C          11.8783   36.5208   10.3676 C.2     1  UNL1        0.0581
     17 C          12.8489   35.6515   10.0898 C.2     1  UNL1        0.0048
@<TRIPOS>BOND
     1     1     9    1
     2     2    13    1
     3     2     3   ar
     4    12    16    1
     5     4     5   ar
     6     6    11    1
     7     6     7   ar
     8     8     9   ar
     9     8     3   ar
    10     9    10   ar
    11    13    12   am
    12     2    10   ar
    13    12    14    2
    14    16    17    2
    15     3     4   ar
    16     5     6   ar
    17     7     8   ar
    18    13    15    1
@<TRIPOS>MOLECULE
Molport-053-349-738
 17 18 0 0 0
SMALL
GASTEIGER

@<TRIPOS>ATOM
      1 C           5.1075   44.7155    7.2941 C.3     1  UNL1        0.1537
      2 C           7.6437   42.6228    8.6973 C.ar    1  UNL1        0.1555
      3 C           6.6096   42.3038    9.5553 C.ar    1  UNL1        0.0508
      4 C           6.5138   41.4490   10.6517 C.ar    1  UNL1        0.0048
      5 C           5.2718   41.3721   11.3097 C.ar    1  UNL1        0.0069
      6 C           4.1720   42.1420   10.8619 C.ar    1  UNL1        0.0361
      7 C           4.3054   42.9969    9.7500 C.ar    1  UNL1        0.0255
      8 C           5.5494   43.0494    9.1195 C.ar    1  UNL1        0.0812
      9 N           5.9291   43.7814    8.0538 N.ar    1  UNL1       -0.2476
     10 N           7.2076   43.5307    7.7903 N.ar    1  UNL1       -0.1540
     11 BR          2.4966   42.0229   11.7699 Br      1  UNL1       -0.0489
     12 C           9.9662   42.5889    9.6924 C.2     1  UNL1        0.2507
     13 N           8.9816   42.1070    8.7607 N.am    1  UNL1       -0.2644
     14 O           9.7750   43.6715   10.3088 O.2     1  UNL1       -0.2698
     15 H           9.2376   41.3895    8.1371 H       1  UNL1        0.1566
     16 C          11.2330   41.8682    9.9267 C.2     1  UNL1        0.0581
     17 C          11.3187   40.7365   10.6247 C.2     1  UNL1        0.0048
@<TRIPOS>BOND
     1     1     9    1
     2     2    13    1
     3     2     3   ar
     4    12    16    1
     5     4     5   ar
     6     6    11    1
     7     6     7   ar
     8     8     9   ar
     9     8     3   ar
    10     9    10   ar
    11    13    12   am
    12     2    10   ar
    13    12    14    2
    14    16    17    2
    15     3     4   ar
    16     5     6   ar
    17     7     8   ar
    18    13    15    1
@<TRIPOS>MOLECULE
Molport-053-349-738
 17 18 0 0 0
SMALL
GASTEIGER

@<TRIPOS>ATOM
      1 C          11.2345   40.3988   10.7080 C.3     1  UNL1        0.1537
      2 C          13.2019   41.3534    7.8798 C.ar    1  UNL1        0.1555
      3 C          12.0380   41.0105    7.2200 C.ar    1  UNL1        0.0508
      4 C          11.6744   41.0053    5.8748 C.ar    1  UNL1        0.0048
      5 C          10.3710   40.5807    5.5552 C.ar    1  UNL1        0.0069
      6 C           9.4762   40.1766    6.5745 C.ar    1  UNL1        0.0361
      7 C           9.8784   40.1938    7.9246 C.ar    1  UNL1        0.0255
      8 C          11.1765   40.6208    8.2079 C.ar    1  UNL1        0.0812
      9 N          11.7937   40.7227    9.4013 N.ar    1  UNL1       -0.2476
     10 N          13.0324   41.1658    9.2114 N.ar    1  UNL1       -0.1540
     11 BR          7.7130   39.6035    6.1182 Br      1  UNL1       -0.0489
     12 C          14.5973   43.1518    6.7828 C.2     1  UNL1        0.2507
     13 N          14.4165   41.8087    7.2655 N.am    1  UNL1       -0.2644
     14 O          13.6004   43.9084    6.6342 O.2     1  UNL1       -0.2698
     15 H          15.1612   41.1719    7.1701 H       1  UNL1        0.1566
     16 C          15.9280   43.6716    6.4106 C.2     1  UNL1        0.0581
     17 C          16.9895   43.6221    7.2143 C.2     1  UNL1        0.0048
@<TRIPOS>BOND
     1     1     9    1
     2     2    13    1
     3     2     3   ar
     4    12    16    1
     5     4     5   ar
     6     6    11    1
     7     6     7   ar
     8     8     9   ar
     9     8     3   ar
    10     9    10   ar
    11    13    12   am
    12     2    10   ar
    13    12    14    2
    14    16    17    2
    15     3     4   ar
    16     5     6   ar
    17     7     8   ar
    18    13    15    1
@<TRIPOS>MOLECULE
Molport-053-349-738
 17 18 0 0 0
SMALL
GASTEIGER

@<TRIPOS>ATOM
      1 C           9.2906   41.1296   14.1811 C.3     1  UNL1        0.1537
      2 C           7.5197   41.8614   11.1629 C.ar    1  UNL1        0.1555
      3 C           8.7445   41.5355   10.6142 C.ar    1  UNL1        0.0508
      4 C           9.2173   41.4911    9.3041 C.ar    1  UNL1        0.0048
      5 C          10.5576   41.1074    9.1091 C.ar    1  UNL1        0.0069
      6 C          11.3806   40.7831   10.2139 C.ar    1  UNL1        0.0361
      7 C          10.8690   40.8399   11.5254 C.ar    1  UNL1        0.0255
      8 C           9.5364   41.2229   11.6843 C.ar    1  UNL1        0.0812
      9 N           8.8227   41.3568   12.8193 N.ar    1  UNL1       -0.2476
     10 N           7.5907   41.7499   12.5119 N.ar    1  UNL1       -0.1540
     11 BR         13.1960   40.2661    9.9265 Br      1  UNL1       -0.0489
     12 C           5.0408   41.7537   10.6850 C.2     1  UNL1        0.2507
     13 N           6.3555   42.2824   10.4367 N.am    1  UNL1       -0.2644
     14 O           4.9018   40.7020   11.3655 O.2     1  UNL1       -0.2698
     15 H           6.4617   42.9652    9.7355 H       1  UNL1        0.1566
     16 C           3.8299   42.3880   10.1277 C.2     1  UNL1        0.0581
     17 C           3.8524   43.2641    9.1242 C.2     1  UNL1        0.0048
@<TRIPOS>BOND
     1     1     9    1
     2     2    13    1
     3     2     3   ar
     4    12    16    1
     5     4     5   ar
     6     6    11    1
     7     6     7   ar
     8     8     9   ar
     9     8     3   ar
    10     9    10   ar
    11    13    12   am
    12     2    10   ar
    13    12    14    2
    14    16    17    2
    15     3     4   ar
    16     5     6   ar
    17     7     8   ar
    18    13    15    1
@<TRIPOS>MOLECULE
Molport-053-349-738
 17 18 0 0 0
SMALL
GASTEIGER

@<TRIPOS>ATOM
      1 C          13.8736   43.4191    6.3070 C.3     1  UNL1        0.1537
      2 C          14.2624   40.5684    8.4291 C.ar    1  UNL1        0.1555
      3 C          13.0157   40.2766    7.9115 C.ar    1  UNL1        0.0508
      4 C          12.1256   39.2235    8.1133 C.ar    1  UNL1        0.0048
      5 C          10.9116   39.2526    7.4014 C.ar    1  UNL1        0.0069
      6 C          10.6214   40.3199    6.5184 C.ar    1  UNL1        0.0361
      7 C          11.5447   41.3689    6.3398 C.ar    1  UNL1        0.0255
      8 C          12.7390   41.3096    7.0594 C.ar    1  UNL1        0.0812
      9 N          13.7680   42.1796    7.0669 N.ar    1  UNL1       -0.2476
     10 N          14.7019   41.7376    7.9031 N.ar    1  UNL1       -0.1540
     11 BR          8.9681   40.3398    5.5636 Br      1  UNL1       -0.0489
     12 C          14.4544   39.4678   10.6956 C.2     1  UNL1        0.2507
     13 N          14.9794   39.7844    9.3941 N.am    1  UNL1       -0.2644
     14 O          13.4564   40.0942   11.1428 O.2     1  UNL1       -0.2698
     15 H          15.8726   39.4472    9.1540 H       1  UNL1        0.1566
     16 C          15.0785   38.4449   11.5578 C.2     1  UNL1        0.0581
     17 C          16.3857   38.1874   11.5676 C.2     1  UNL1        0.0048
@<TRIPOS>BOND
     1     1     9    1
     2     2    13    1
     3     2     3   ar
     4    12    16    1
     5     4     5   ar
     6     6    11    1
     7     6     7   ar
     8     8     9   ar
     9     8     3   ar
    10     9    10   ar
    11    13    12   am
    12     2    10   ar
    13    12    14    2
    14    16    17    2
    15     3     4   ar
    16     5     6   ar
    17     7     8   ar
    18    13    15    1
