@<TRIPOS>MOLECULE
MolPort-007-723-737 8588205 CHEMBL1355675 ChemDiv-E157-8420 MCULE-7523060625 PubChem-16017631 ZINC000008588205 ZINC08588205
 29 31 0 0 0
SMALL
GASTEIGER

@<TRIPOS>ATOM
      1 C           9.1705   41.9161   10.0720 C.ar    1  UNL1        0.1896
      2 C          11.3560   41.3532    9.2933 C.ar    1  UNL1        0.2593
      3 N          10.0603   42.9222   10.2233 N.ar    1  UNL1       -0.1239
      4 N          11.2790   42.6073    9.7889 N.ar    1  UNL1       -0.1187
      5 S           9.8746   40.5559    9.3759 S.2     1  UNL1       -0.0102
      6 C           6.6878   41.5419    9.6670 C.2     1  UNL1        0.2539
      7 O           6.8917   41.0309    8.5326 O.2     1  UNL1       -0.2697
      8 N           7.7955   41.9901   10.4603 N.am    1  UNL1       -0.2591
      9 H           7.5937   42.3795   11.3417 H       1  UNL1        0.1571
     10 C           4.3752   42.5985    9.6402 C.ar    1  UNL1        0.1430
     11 C           5.3084   41.6866   10.1911 C.ar    1  UNL1        0.0876
     12 C           4.9178   40.8848   11.2755 C.ar    1  UNL1        0.0076
     13 C           3.6328   40.9773   11.8117 C.ar    1  UNL1        0.0003
     14 C           2.7157   41.8758   11.2695 C.ar    1  UNL1        0.0031
     15 C           3.0844   42.6808   10.1912 C.ar    1  UNL1        0.0371
     16 C           3.9742   44.5418    8.1523 C.3     1  UNL1        0.2525
     17 O           4.7336   43.4098    8.5560 O.3     1  UNL1       -0.4713
     18 O          12.5578   39.2575    8.1596 O.2     1  UNL1       -0.1477
     19 O          13.8452   40.5739    9.7712 O.2     1  UNL1       -0.1477
     20 S          12.8304   40.6465    8.6647 S.O2    1  UNL1        0.1010
     21 C          12.6169   41.7459    6.1622 C.3     1  UNL1        0.1392
     22 N          13.4377   41.6212    7.3590 N.pl3   1  UNL1       -0.1870
     23 C          14.7219   42.2727    7.4368 C.ar    1  UNL1        0.0690
     24 C          15.7645   41.7186    8.1982 C.ar    1  UNL1        0.0170
     25 C          17.0095   42.3490    8.2683 C.ar    1  UNL1        0.0127
     26 C          17.2272   43.5428    7.5775 C.ar    1  UNL1        0.0578
     27 C          16.2001   44.1066    6.8174 C.ar    1  UNL1        0.0127
     28 C          14.9551   43.4753    6.7476 C.ar    1  UNL1        0.0170
     29 CL         18.7864   44.3327    7.6645 Cl      1  UNL1       -0.0822
@<TRIPOS>BOND
     1    16    17    1
     2    10    17    1
     3    11    12   ar
     4    11     6    1
     5    13    14   ar
     6    15    10   ar
     7     6     8   am
     8     1     5   ar
     9     2     5   ar
    10    21    22    1
    11    24    25   ar
    12    26    29    1
    13    26    27   ar
    14    28    23   ar
    15     8     1    1
    16     3     4   ar
    17    22    23    1
    18    20     2    1
    19    20    22    1
    20    10    11   ar
    21    12    13   ar
    22    14    15   ar
    23     6     7    2
    24     1     3   ar
    25     2     4   ar
    26    23    24   ar
    27    25    26   ar
    28    27    28   ar
    29    20    18    2
    30    20    19    2
    31     8     9    1
@<TRIPOS>MOLECULE
MolPort-007-723-737 8588205 CHEMBL1355675 ChemDiv-E157-8420 MCULE-7523060625 PubChem-16017631 ZINC000008588205 ZINC08588205
 29 31 0 0 0
SMALL
GASTEIGER

@<TRIPOS>ATOM
      1 C          11.4132   41.6071    6.7110 C.ar    1  UNL1        0.1896
      2 C           9.0333   41.5766    6.5247 C.ar    1  UNL1        0.2593
      3 N          10.9853   41.3997    5.4459 N.ar    1  UNL1       -0.1239
      4 N           9.6579   41.3826    5.3429 N.ar    1  UNL1       -0.1187
      5 S          10.1307   41.7818    7.7859 S.2     1  UNL1       -0.0102
      6 C          13.6897   42.7385    6.7858 C.2     1  UNL1        0.2539
      7 O          13.2813   43.7315    6.1250 O.2     1  UNL1       -0.2697
      8 N          12.7895   41.6663    7.0976 N.am    1  UNL1       -0.2591
      9 H          13.1468   40.9114    7.6188 H       1  UNL1        0.1571
     10 C          15.5241   41.7765    8.2604 C.ar    1  UNL1        0.1430
     11 C          15.0978   42.6665    7.2446 C.ar    1  UNL1        0.0876
     12 C          16.0407   43.5158    6.6439 C.ar    1  UNL1        0.0076
     13 C          17.3802   43.4933    7.0347 C.ar    1  UNL1        0.0003
     14 C          17.7984   42.6179    8.0353 C.ar    1  UNL1        0.0031
     15 C          16.8767   41.7653    8.6438 C.ar    1  UNL1        0.0371
     16 C          15.0029   39.8414    9.7215 C.3     1  UNL1        0.2525
     17 O          14.6081   40.9143    8.8766 O.3     1  UNL1       -0.4713
     18 O           6.8139   40.2305    7.1443 O.2     1  UNL1       -0.1477
     19 O           6.6627   41.9298    5.3902 O.2     1  UNL1       -0.1477
     20 S           7.2917   41.5883    6.7120 S.O2    1  UNL1        0.1010
     21 C           7.4480   44.0839    7.8365 C.3     1  UNL1        0.1392
     22 N           6.8387   42.7630    7.9114 N.pl3   1  UNL1       -0.1870
     23 C           5.9075   42.4454    8.9656 C.ar    1  UNL1        0.0690
     24 C           4.5809   42.9056    8.9163 C.ar    1  UNL1        0.0170
     25 C           3.6790   42.5927    9.9365 C.ar    1  UNL1        0.0127
     26 C           4.0931   41.8153   11.0201 C.ar    1  UNL1        0.0578
     27 C           5.4089   41.3517   11.0840 C.ar    1  UNL1        0.0127
     28 C           6.3104   41.6649   10.0629 C.ar    1  UNL1        0.0170
     29 CL          2.9638   41.4227   12.2981 Cl      1  UNL1       -0.0822
@<TRIPOS>BOND
     1    16    17    1
     2    10    17    1
     3    11    12   ar
     4    11     6    1
     5    13    14   ar
     6    15    10   ar
     7     6     8   am
     8     1     5   ar
     9     2     5   ar
    10    21    22    1
    11    24    25   ar
    12    26    29    1
    13    26    27   ar
    14    28    23   ar
    15     8     1    1
    16     3     4   ar
    17    22    23    1
    18    20     2    1
    19    20    22    1
    20    10    11   ar
    21    12    13   ar
    22    14    15   ar
    23     6     7    2
    24     1     3   ar
    25     2     4   ar
    26    23    24   ar
    27    25    26   ar
    28    27    28   ar
    29    20    18    2
    30    20    19    2
    31     8     9    1
@<TRIPOS>MOLECULE
MolPort-007-723-737 8588205 CHEMBL1355675 ChemDiv-E157-8420 MCULE-7523060625 PubChem-16017631 ZINC000008588205 ZINC08588205
 29 31 0 0 0
SMALL
GASTEIGER

@<TRIPOS>ATOM
      1 C          11.3091   41.6083    6.6309 C.ar    1  UNL1        0.1896
      2 C           8.9263   41.6084    6.4841 C.ar    1  UNL1        0.2593
      3 N          10.8569   41.3468    5.3843 N.ar    1  UNL1       -0.1239
      4 N           9.5278   41.3470    5.3034 N.ar    1  UNL1       -0.1187
      5 S          10.0478   41.8563    7.7162 S.2     1  UNL1       -0.0102
      6 C          13.5864   42.7397    6.6773 C.2     1  UNL1        0.2539
      7 O          13.1653   43.7410    6.0372 O.2     1  UNL1       -0.2697
      8 N          12.6924   41.6632    6.9921 N.am    1  UNL1       -0.2591
      9 H          13.0597   40.9018    7.4967 H       1  UNL1        0.1571
     10 C          16.0331   43.4023    6.4780 C.ar    1  UNL1        0.1430
     11 C          15.0029   42.6625    7.1084 C.ar    1  UNL1        0.0876
     12 C          15.3291   41.8219    8.1846 C.ar    1  UNL1        0.0076
     13 C          16.6453   41.7079    8.6343 C.ar    1  UNL1        0.0003
     14 C          17.6584   42.4355    8.0125 C.ar    1  UNL1        0.0031
     15 C          17.3543   43.2769    6.9419 C.ar    1  UNL1        0.0371
     16 C          15.1936   45.5536    5.5737 C.3     1  UNL1        0.2525
     17 O          15.7391   44.2519    5.4039 O.3     1  UNL1       -0.4713
     18 O           6.6747   40.2873    7.0379 O.2     1  UNL1       -0.1477
     19 O           6.5531   42.1143    5.4147 O.2     1  UNL1       -0.1477
     20 S           7.1884   41.6583    6.6984 S.O2    1  UNL1        0.1010
     21 C           7.3812   44.0848    7.9600 C.3     1  UNL1        0.1392
     22 N           6.7876   42.7549    7.9869 N.pl3   1  UNL1       -0.1870
     23 C           5.9141   42.3651    9.0661 C.ar    1  UNL1        0.0690
     24 C           4.5789   42.8005    9.1038 C.ar    1  UNL1        0.0170
     25 C           3.7330   42.4177   10.1479 C.ar    1  UNL1        0.0127
     26 C           4.2126   41.5943   11.1686 C.ar    1  UNL1        0.0578
     27 C           5.5379   41.1544   11.1458 C.ar    1  UNL1        0.0127
     28 C           6.3834   41.5376   10.1008 C.ar    1  UNL1        0.0170
     29 CL          3.1536   41.1141   12.4764 Cl      1  UNL1       -0.0822
@<TRIPOS>BOND
     1    16    17    1
     2    10    17    1
     3    11    12   ar
     4    11     6    1
     5    13    14   ar
     6    15    10   ar
     7     6     8   am
     8     1     5   ar
     9     2     5   ar
    10    21    22    1
    11    24    25   ar
    12    26    29    1
    13    26    27   ar
    14    28    23   ar
    15     8     1    1
    16     3     4   ar
    17    22    23    1
    18    20     2    1
    19    20    22    1
    20    10    11   ar
    21    12    13   ar
    22    14    15   ar
    23     6     7    2
    24     1     3   ar
    25     2     4   ar
    26    23    24   ar
    27    25    26   ar
    28    27    28   ar
    29    20    18    2
    30    20    19    2
    31     8     9    1
@<TRIPOS>MOLECULE
MolPort-007-723-737 8588205 CHEMBL1355675 ChemDiv-E157-8420 MCULE-7523060625 PubChem-16017631 ZINC000008588205 ZINC08588205
 29 31 0 0 0
SMALL
GASTEIGER

@<TRIPOS>ATOM
      1 C          11.7548   41.6034    6.4168 C.ar    1  UNL1        0.1896
      2 C           9.3732   41.4389    6.3931 C.ar    1  UNL1        0.2593
      3 N          11.2574   41.3195    5.1926 N.ar    1  UNL1       -0.1239
      4 N           9.9290   41.2277    5.1803 N.ar    1  UNL1       -0.1187
      5 S          10.5375   41.7559    7.5682 S.2     1  UNL1       -0.0102
      6 C          13.8969   42.9666    6.5621 C.2     1  UNL1        0.2539
      7 O          13.3254   44.0140    6.1548 O.2     1  UNL1       -0.2697
      8 N          13.1479   41.7520    6.7069 N.am    1  UNL1       -0.2591
      9 H          13.6306   40.9577    7.0315 H       1  UNL1        0.1571
     10 C          15.8998   42.1525    7.9003 C.ar    1  UNL1        0.1430
     11 C          15.3422   42.9770    6.8928 C.ar    1  UNL1        0.0876
     12 C          16.1859   43.8398    6.1750 C.ar    1  UNL1        0.0076
     13 C          17.5545   43.8937    6.4424 C.ar    1  UNL1        0.0003
     14 C          18.1019   43.0826    7.4348 C.ar    1  UNL1        0.0031
     15 C          17.2802   42.2180    8.1586 C.ar    1  UNL1        0.0371
     16 C          15.6046   40.2634    9.4799 C.3     1  UNL1        0.2525
     17 O          15.0849   41.2789    8.6315 O.3     1  UNL1       -0.4713
     18 O           7.2650   39.9818    7.1376 O.2     1  UNL1       -0.1477
     19 O           6.9173   41.6959    5.4264 O.2     1  UNL1       -0.1477
     20 S           7.6496   41.3663    6.6971 S.O2    1  UNL1        0.1010
     21 C           6.5530   43.7313    7.5463 C.3     1  UNL1        0.1392
     22 N           7.2256   42.5019    7.9437 N.pl3   1  UNL1       -0.1870
     23 C           7.5441   42.2570    9.3286 C.ar    1  UNL1        0.0690
     24 C           8.7600   42.6994    9.8761 C.ar    1  UNL1        0.0170
     25 C           9.0646   42.4651   11.2195 C.ar    1  UNL1        0.0127
     26 C           8.1562   41.7843   12.0327 C.ar    1  UNL1        0.0578
     27 C           6.9440   41.3371   11.5026 C.ar    1  UNL1        0.0127
     28 C           6.6400   41.5721   10.1587 C.ar    1  UNL1        0.0170
     29 CL          8.5368   41.4909   13.7154 Cl      1  UNL1       -0.0822
@<TRIPOS>BOND
     1    16    17    1
     2    10    17    1
     3    11    12   ar
     4    11     6    1
     5    13    14   ar
     6    15    10   ar
     7     6     8   am
     8     1     5   ar
     9     2     5   ar
    10    21    22    1
    11    24    25   ar
    12    26    29    1
    13    26    27   ar
    14    28    23   ar
    15     8     1    1
    16     3     4   ar
    17    22    23    1
    18    20     2    1
    19    20    22    1
    20    10    11   ar
    21    12    13   ar
    22    14    15   ar
    23     6     7    2
    24     1     3   ar
    25     2     4   ar
    26    23    24   ar
    27    25    26   ar
    28    27    28   ar
    29    20    18    2
    30    20    19    2
    31     8     9    1
@<TRIPOS>MOLECULE
MolPort-007-723-737 8588205 CHEMBL1355675 ChemDiv-E157-8420 MCULE-7523060625 PubChem-16017631 ZINC000008588205 ZINC08588205
 29 31 0 0 0
SMALL
GASTEIGER

@<TRIPOS>ATOM
      1 C          12.2833   41.5913    9.0727 C.ar    1  UNL1        0.1896
      2 C           9.9960   41.5413    9.7548 C.ar    1  UNL1        0.2593
      3 N          11.8434   40.3446    9.3540 N.ar    1  UNL1       -0.1239
      4 N          10.5676   40.3177    9.7346 N.ar    1  UNL1       -0.1187
      5 S          11.0786   42.7453    9.2903 S.2     1  UNL1       -0.0102
      6 C          13.9525   42.6236    7.4552 C.2     1  UNL1        0.2539
      7 O          13.0403   43.0455    6.6939 O.2     1  UNL1       -0.2697
      8 N          13.6137   41.9001    8.6464 N.am    1  UNL1       -0.2591
      9 H          14.3553   41.5915    9.2157 H       1  UNL1        0.1571
     10 C          16.4386   42.2630    7.8479 C.ar    1  UNL1        0.1430
     11 C          15.3782   42.8674    7.1294 C.ar    1  UNL1        0.0876
     12 C          15.6824   43.7317    6.0656 C.ar    1  UNL1        0.0076
     13 C          17.0059   43.9997    5.7132 C.ar    1  UNL1        0.0003
     14 C          18.0485   43.4052    6.4216 C.ar    1  UNL1        0.0031
     15 C          17.7668   42.5428    7.4815 C.ar    1  UNL1        0.0371
     16 C          17.1833   40.6877    9.6127 C.3     1  UNL1        0.2525
     17 O          16.1675   41.3936    8.9122 O.3     1  UNL1       -0.4713
     18 O           8.1897   43.2268   10.7638 O.2     1  UNL1       -0.1477
     19 O           7.9621   40.8526   11.3107 O.2     1  UNL1       -0.1477
     20 S           8.3349   41.8292   10.2304 S.O2    1  UNL1        0.1010
     21 C           7.5263   40.4927    7.9773 C.3     1  UNL1        0.1392
     22 N           7.2883   41.6295    8.8563 N.pl3   1  UNL1       -0.1870
     23 C           6.2286   42.5652    8.5718 C.ar    1  UNL1        0.0690
     24 C           6.4012   43.5777    7.6132 C.ar    1  UNL1        0.0170
     25 C           5.3715   44.4804    7.3356 C.ar    1  UNL1        0.0127
     26 C           4.1551   44.3819    8.0144 C.ar    1  UNL1        0.0578
     27 C           3.9689   43.3816    8.9711 C.ar    1  UNL1        0.0127
     28 C           4.9994   42.4789    9.2479 C.ar    1  UNL1        0.0170
     29 CL          2.8647   45.5118    7.6670 Cl      1  UNL1       -0.0822
@<TRIPOS>BOND
     1    16    17    1
     2    10    17    1
     3    11    12   ar
     4    11     6    1
     5    13    14   ar
     6    15    10   ar
     7     6     8   am
     8     1     5   ar
     9     2     5   ar
    10    21    22    1
    11    24    25   ar
    12    26    29    1
    13    26    27   ar
    14    28    23   ar
    15     8     1    1
    16     3     4   ar
    17    22    23    1
    18    20     2    1
    19    20    22    1
    20    10    11   ar
    21    12    13   ar
    22    14    15   ar
    23     6     7    2
    24     1     3   ar
    25     2     4   ar
    26    23    24   ar
    27    25    26   ar
    28    27    28   ar
    29    20    18    2
    30    20    19    2
    31     8     9    1
@<TRIPOS>MOLECULE
MolPort-007-723-737 8588205 CHEMBL1355675 ChemDiv-E157-8420 MCULE-7523060625 PubChem-16017631 ZINC000008588205 ZINC08588205
 29 31 0 0 0
SMALL
GASTEIGER

@<TRIPOS>ATOM
      1 C          11.6238   41.5822    6.2671 C.ar    1  UNL1        0.1896
      2 C           9.2568   41.2778    6.3350 C.ar    1  UNL1        0.2593
      3 N          11.1510   40.8822    5.2120 N.ar    1  UNL1       -0.1239
      4 N           9.8308   40.7128    5.2508 N.ar    1  UNL1       -0.1187
      5 S          10.3935   42.0324    7.3228 S.2     1  UNL1       -0.0102
      6 C          13.7335   41.6723    7.6845 C.2     1  UNL1        0.2539
      7 O          13.1580   41.1481    8.6763 O.2     1  UNL1       -0.2697
      8 N          13.0037   41.9003    6.4710 N.am    1  UNL1       -0.2591
      9 H          13.4908   42.3080    5.7188 H       1  UNL1        0.1571
     10 C          15.7319   43.0449    6.9183 C.ar    1  UNL1        0.1430
     11 C          15.1629   42.0588    7.7606 C.ar    1  UNL1        0.0876
     12 C          15.9788   41.4191    8.7074 C.ar    1  UNL1        0.0076
     13 C          17.3316   41.7407    8.8248 C.ar    1  UNL1        0.0003
     14 C          17.8907   42.7105    7.9946 C.ar    1  UNL1        0.0031
     15 C          17.0963   43.3581    7.0480 C.ar    1  UNL1        0.0371
     16 C          15.0097   45.1056    5.7424 C.3     1  UNL1        0.2525
     17 O          14.9434   43.7033    5.9660 O.3     1  UNL1       -0.4713
     18 O           7.1515   39.8091    7.0648 O.2     1  UNL1       -0.1477
     19 O           6.7839   41.5936    5.4314 O.2     1  UNL1       -0.1477
     20 S           7.5393   41.2071    6.6721 S.O2    1  UNL1        0.1010
     21 C           6.4318   43.5185    7.6455 C.3     1  UNL1        0.1392
     22 N           7.1515   42.2950    7.9720 N.pl3   1  UNL1       -0.1870
     23 C           7.5438   42.0174    9.3316 C.ar    1  UNL1        0.0690
     24 C           8.8817   42.1572    9.7369 C.ar    1  UNL1        0.0170
     25 C           9.2589   41.8924   11.0560 C.ar    1  UNL1        0.0127
     26 C           8.3017   41.4835   11.9869 C.ar    1  UNL1        0.0578
     27 C           6.9679   41.3386   11.5987 C.ar    1  UNL1        0.0127
     28 C           6.5915   41.6040   10.2791 C.ar    1  UNL1        0.0170
     29 CL          8.7732   41.1520   13.6392 Cl      1  UNL1       -0.0822
@<TRIPOS>BOND
     1    16    17    1
     2    10    17    1
     3    11    12   ar
     4    11     6    1
     5    13    14   ar
     6    15    10   ar
     7     6     8   am
     8     1     5   ar
     9     2     5   ar
    10    21    22    1
    11    24    25   ar
    12    26    29    1
    13    26    27   ar
    14    28    23   ar
    15     8     1    1
    16     3     4   ar
    17    22    23    1
    18    20     2    1
    19    20    22    1
    20    10    11   ar
    21    12    13   ar
    22    14    15   ar
    23     6     7    2
    24     1     3   ar
    25     2     4   ar
    26    23    24   ar
    27    25    26   ar
    28    27    28   ar
    29    20    18    2
    30    20    19    2
    31     8     9    1
@<TRIPOS>MOLECULE
MolPort-007-723-737 8588205 CHEMBL1355675 ChemDiv-E157-8420 MCULE-7523060625 PubChem-16017631 ZINC000008588205 ZINC08588205
 29 31 0 0 0
SMALL
GASTEIGER

@<TRIPOS>ATOM
      1 C           7.2598   40.4607    7.2418 C.ar    1  UNL1        0.1896
      2 C           9.3284   40.3611    6.0542 C.ar    1  UNL1        0.2593
      3 N           7.1056   40.1342    5.9394 N.ar    1  UNL1       -0.1239
      4 N           8.2599   40.0790    5.2777 N.ar    1  UNL1       -0.1187
      5 S           8.8763   40.7029    7.6404 S.2     1  UNL1       -0.0102
      6 C           5.6746   41.8342    8.6801 C.2     1  UNL1        0.2539
      7 O           6.1830   42.9237    8.3003 O.2     1  UNL1       -0.2697
      8 N           6.1820   40.5920    8.1735 N.am    1  UNL1       -0.2591
      9 H           5.7547   39.7642    8.4921 H       1  UNL1        0.1571
     10 C           4.7483   42.0057   11.0418 C.ar    1  UNL1        0.1430
     11 C           4.5539   41.8238    9.6508 C.ar    1  UNL1        0.0876
     12 C           3.2512   41.6262    9.1656 C.ar    1  UNL1        0.0076
     13 C           2.1570   41.6060   10.0315 C.ar    1  UNL1        0.0003
     14 C           2.3497   41.7840   11.4003 C.ar    1  UNL1        0.0031
     15 C           3.6364   41.9825   11.9019 C.ar    1  UNL1        0.0371
     16 C           6.9383   41.1434   11.8235 C.3     1  UNL1        0.2525
     17 O           6.0352   42.2083   11.5563 O.3     1  UNL1       -0.4713
     18 O          11.2219   41.6460    4.6811 O.2     1  UNL1       -0.1477
     19 O          11.1904   39.2021    4.5638 O.2     1  UNL1       -0.1477
     20 S          10.9776   40.3867    5.4643 S.O2    1  UNL1        0.1010
     21 C          11.8708   39.2952    7.8153 C.3     1  UNL1        0.1392
     22 N          12.0816   40.3242    6.8062 N.pl3   1  UNL1       -0.1870
     23 C          13.1625   41.2694    6.9396 C.ar    1  UNL1        0.0690
     24 C          13.2386   42.3974    6.1056 C.ar    1  UNL1        0.0170
     25 C          14.2842   43.3145    6.2397 C.ar    1  UNL1        0.0127
     26 C          15.2679   43.1144    7.2104 C.ar    1  UNL1        0.0578
     27 C          15.2066   41.9971    8.0461 C.ar    1  UNL1        0.0127
     28 C          14.1602   41.0803    7.9114 C.ar    1  UNL1        0.0170
     29 CL         16.5775   44.2628    7.3793 Cl      1  UNL1       -0.0822
@<TRIPOS>BOND
     1    16    17    1
     2    10    17    1
     3    11    12   ar
     4    11     6    1
     5    13    14   ar
     6    15    10   ar
     7     6     8   am
     8     1     5   ar
     9     2     5   ar
    10    21    22    1
    11    24    25   ar
    12    26    29    1
    13    26    27   ar
    14    28    23   ar
    15     8     1    1
    16     3     4   ar
    17    22    23    1
    18    20     2    1
    19    20    22    1
    20    10    11   ar
    21    12    13   ar
    22    14    15   ar
    23     6     7    2
    24     1     3   ar
    25     2     4   ar
    26    23    24   ar
    27    25    26   ar
    28    27    28   ar
    29    20    18    2
    30    20    19    2
    31     8     9    1
@<TRIPOS>MOLECULE
MolPort-007-723-737 8588205 CHEMBL1355675 ChemDiv-E157-8420 MCULE-7523060625 PubChem-16017631 ZINC000008588205 ZINC08588205
 29 31 0 0 0
SMALL
GASTEIGER

@<TRIPOS>ATOM
      1 C           9.2598   41.1567    8.3706 C.ar    1  UNL1        0.1896
      2 C          11.4651   41.6492    7.6002 C.ar    1  UNL1        0.2593
      3 N           9.5659   40.5322    7.2117 N.ar    1  UNL1       -0.1239
      4 N          10.7961   40.8076    6.7827 N.ar    1  UNL1       -0.1187
      5 S          10.5338   42.1036    8.9281 S.2     1  UNL1       -0.0102
      6 C           6.9217   41.9734    8.9491 C.2     1  UNL1        0.2539
      7 O           7.0381   42.9975    8.2231 O.2     1  UNL1       -0.2697
      8 N           8.0034   41.0362    9.0443 N.am    1  UNL1       -0.2591
      9 H           7.8708   40.2477    9.6187 H       1  UNL1        0.1571
     10 C           5.6754   41.2931   11.0584 C.ar    1  UNL1        0.1430
     11 C           5.6734   41.7275    9.7104 C.ar    1  UNL1        0.0876
     12 C           4.4444   41.9360    9.0642 C.ar    1  UNL1        0.0076
     13 C           3.2368   41.7204    9.7296 C.ar    1  UNL1        0.0003
     14 C           3.2401   41.2919   11.0558 C.ar    1  UNL1        0.0031
     15 C           4.4510   41.0798   11.7155 C.ar    1  UNL1        0.0371
     16 C           7.6570   42.1346   12.2897 C.3     1  UNL1        0.2525
     17 O           6.8850   41.0794   11.7315 O.3     1  UNL1       -0.4713
     18 O          13.2181   43.6603    7.6668 O.2     1  UNL1       -0.1477
     19 O          13.3946   42.0564    5.8273 O.2     1  UNL1       -0.1477
     20 S          13.0959   42.2098    7.2925 S.O2    1  UNL1        0.1010
     21 C          15.6092   41.7260    8.2753 C.3     1  UNL1        0.1392
     22 N          14.2235   41.2791    8.2336 N.pl3   1  UNL1       -0.1870
     23 C          13.8174   40.0877    8.9372 C.ar    1  UNL1        0.0690
     24 C          13.4791   38.9182    8.2359 C.ar    1  UNL1        0.0170
     25 C          13.0905   37.7635    8.9198 C.ar    1  UNL1        0.0127
     26 C          13.0348   37.7641   10.3152 C.ar    1  UNL1        0.0578
     27 C          13.3668   38.9193   11.0263 C.ar    1  UNL1        0.0127
     28 C          13.7557   40.0739   10.3414 C.ar    1  UNL1        0.0170
     29 CL         12.5486   36.3180   11.1725 Cl      1  UNL1       -0.0822
@<TRIPOS>BOND
     1    16    17    1
     2    10    17    1
     3    11    12   ar
     4    11     6    1
     5    13    14   ar
     6    15    10   ar
     7     6     8   am
     8     1     5   ar
     9     2     5   ar
    10    21    22    1
    11    24    25   ar
    12    26    29    1
    13    26    27   ar
    14    28    23   ar
    15     8     1    1
    16     3     4   ar
    17    22    23    1
    18    20     2    1
    19    20    22    1
    20    10    11   ar
    21    12    13   ar
    22    14    15   ar
    23     6     7    2
    24     1     3   ar
    25     2     4   ar
    26    23    24   ar
    27    25    26   ar
    28    27    28   ar
    29    20    18    2
    30    20    19    2
    31     8     9    1
@<TRIPOS>MOLECULE
MolPort-007-723-737 8588205 CHEMBL1355675 ChemDiv-E157-8420 MCULE-7523060625 PubChem-16017631 ZINC000008588205 ZINC08588205
 29 31 0 0 0
SMALL
GASTEIGER

@<TRIPOS>ATOM
      1 C           9.6428   41.0868    9.6857 C.ar    1  UNL1        0.1896
      2 C          11.9011   40.3235    9.5560 C.ar    1  UNL1        0.2593
      3 N          10.1960   41.2791    8.4676 N.ar    1  UNL1       -0.1239
      4 N          11.4556   40.8533    8.3962 N.ar    1  UNL1       -0.1187
      5 S          10.7199   40.3625   10.7561 S.2     1  UNL1       -0.0102
      6 C           7.1455   41.2171    9.2223 C.2     1  UNL1        0.2539
      7 O           7.2633   40.6316    8.1119 O.2     1  UNL1       -0.2697
      8 N           8.3050   41.4576   10.0317 N.am    1  UNL1       -0.2591
      9 H           8.1695   41.9140   10.8934 H       1  UNL1        0.1571
     10 C           5.1616   42.8069    9.1814 C.ar    1  UNL1        0.1430
     11 C           5.8152   41.6630    9.7014 C.ar    1  UNL1        0.0876
     12 C           5.1834   40.9176   10.7097 C.ar    1  UNL1        0.0076
     13 C           3.9312   41.2892   11.2008 C.ar    1  UNL1        0.0003
     14 C           3.2895   42.4157   10.6891 C.ar    1  UNL1        0.0031
     15 C           3.9005   43.1692    9.6863 C.ar    1  UNL1        0.0371
     16 C           5.0877   44.6104    7.4807 C.3     1  UNL1        0.2525
     17 O           5.7644   43.5694    8.1729 O.3     1  UNL1       -0.4713
     18 O          13.9660   39.9151   11.1965 O.2     1  UNL1       -0.1477
     19 O          14.4563   40.4261    8.8543 O.2     1  UNL1       -0.1477
     20 S          13.5215   39.6960    9.7776 S.O2    1  UNL1        0.1010
     21 C          12.2774   37.2740    9.4570 C.3     1  UNL1        0.1392
     22 N          13.5439   37.9929    9.4276 N.pl3   1  UNL1       -0.1870
     23 C          14.7735   37.2975    9.1378 C.ar    1  UNL1        0.0690
     24 C          14.8526   36.3925    8.0661 C.ar    1  UNL1        0.0170
     25 C          16.0464   35.7234    7.7841 C.ar    1  UNL1        0.0127
     26 C          17.1768   35.9509    8.5717 C.ar    1  UNL1        0.0578
     27 C          17.1134   36.8466    9.6414 C.ar    1  UNL1        0.0127
     28 C          15.9190   37.5157    9.9226 C.ar    1  UNL1        0.0170
     29 CL         18.6725   35.1135    8.2189 Cl      1  UNL1       -0.0822
@<TRIPOS>BOND
     1    16    17    1
     2    10    17    1
     3    11    12   ar
     4    11     6    1
     5    13    14   ar
     6    15    10   ar
     7     6     8   am
     8     1     5   ar
     9     2     5   ar
    10    21    22    1
    11    24    25   ar
    12    26    29    1
    13    26    27   ar
    14    28    23   ar
    15     8     1    1
    16     3     4   ar
    17    22    23    1
    18    20     2    1
    19    20    22    1
    20    10    11   ar
    21    12    13   ar
    22    14    15   ar
    23     6     7    2
    24     1     3   ar
    25     2     4   ar
    26    23    24   ar
    27    25    26   ar
    28    27    28   ar
    29    20    18    2
    30    20    19    2
    31     8     9    1
@<TRIPOS>MOLECULE
MolPort-007-723-737 8588205 CHEMBL1355675 ChemDiv-E157-8420 MCULE-7523060625 PubChem-16017631 ZINC000008588205 ZINC08588205
 29 31 0 0 0
SMALL
GASTEIGER

@<TRIPOS>ATOM
      1 C          11.8920   39.7510    9.7691 C.ar    1  UNL1        0.1896
      2 C          13.9977   38.8942   10.4981 C.ar    1  UNL1        0.2593
      3 N          12.2051   40.1225   11.0303 N.ar    1  UNL1       -0.1239
      4 N          13.3796   39.6441   11.4361 N.ar    1  UNL1       -0.1187
      5 S          13.0885   38.7866    9.0843 S.2     1  UNL1       -0.0102
      6 C           9.8117   39.2204    8.4057 C.2     1  UNL1        0.2539
      7 O          10.0802   37.9891    8.3694 O.2     1  UNL1       -0.2697
      8 N          10.6872   40.1244    9.0938 N.am    1  UNL1       -0.2591
      9 H          10.4396   41.0773    9.1021 H       1  UNL1        0.1571
     10 C           7.8012   40.7737    8.3045 C.ar    1  UNL1        0.1430
     11 C           8.5957   39.7462    7.7399 C.ar    1  UNL1        0.0876
     12 C           8.2230   39.2005    6.5011 C.ar    1  UNL1        0.0076
     13 C           7.0882   39.6547    5.8278 C.ar    1  UNL1        0.0003
     14 C           6.3066   40.6651    6.3849 C.ar    1  UNL1        0.0031
     15 C           6.6607   41.2208    7.6147 C.ar    1  UNL1        0.0371
     16 C           7.9481   42.7148    9.8412 C.3     1  UNL1        0.2525
     17 O           8.1486   41.3406    9.5374 O.3     1  UNL1       -0.4713
     18 O          15.6329   36.8698    9.9067 O.2     1  UNL1       -0.1477
     19 O          15.6781   37.7393   12.1935 O.2     1  UNL1       -0.1477
     20 S          15.5472   38.1150   10.7439 S.O2    1  UNL1        0.1010
     21 C          18.1699   38.9133   10.7776 C.3     1  UNL1        0.1392
     22 N          16.8279   39.1997   10.2890 N.pl3   1  UNL1       -0.1870
     23 C          16.5788   40.3621    9.4728 C.ar    1  UNL1        0.0690
     24 C          17.6003   41.2912    9.2136 C.ar    1  UNL1        0.0170
     25 C          17.3581   42.4144    8.4185 C.ar    1  UNL1        0.0127
     26 C          16.0898   42.6228    7.8727 C.ar    1  UNL1        0.0578
     27 C          15.0638   41.7088    8.1225 C.ar    1  UNL1        0.0127
     28 C          15.3070   40.5854    8.9177 C.ar    1  UNL1        0.0170
     29 CL         15.7858   44.0290    6.8765 Cl      1  UNL1       -0.0822
@<TRIPOS>BOND
     1    16    17    1
     2    10    17    1
     3    11    12   ar
     4    11     6    1
     5    13    14   ar
     6    15    10   ar
     7     6     8   am
     8     1     5   ar
     9     2     5   ar
    10    21    22    1
    11    24    25   ar
    12    26    29    1
    13    26    27   ar
    14    28    23   ar
    15     8     1    1
    16     3     4   ar
    17    22    23    1
    18    20     2    1
    19    20    22    1
    20    10    11   ar
    21    12    13   ar
    22    14    15   ar
    23     6     7    2
    24     1     3   ar
    25     2     4   ar
    26    23    24   ar
    27    25    26   ar
    28    27    28   ar
    29    20    18    2
    30    20    19    2
    31     8     9    1
