@<TRIPOS>MOLECULE
MolPort-002-774-944 20607528 CSSS00133006747 ChemDiv-F018-3348 MCULE-2222494242 PubChem-19591018 ZINC000020607528 ZINC20607528
 27 29 0 0 0
SMALL
GASTEIGER

@<TRIPOS>ATOM
      1 C          12.9549   40.6895    8.8199 C.2     1  UNL1        0.2521
      2 N          12.0367   41.7880    8.8376 N.am    1  UNL1       -0.2663
      3 O          12.5670   39.5202    8.5573 O.2     1  UNL1       -0.2726
      4 H          12.4007   42.6750    9.0613 H       1  UNL1        0.1564
      5 C          10.6348   41.7077    8.5579 C.ar    1  UNL1        0.1551
      6 C          10.0519   41.0383    7.4879 C.ar    1  UNL1        0.0505
      7 C           8.7064   41.2833    7.6879 C.ar    1  UNL1        0.0588
      8 C           7.6067   40.7907    6.8112 C.3     1  UNL1        0.0518
      9 N           8.5333   42.0338    8.7909 N.ar    1  UNL1       -0.2537
     10 N           9.7077   42.3046    9.3302 N.ar    1  UNL1       -0.1543
     11 C           7.2652   42.5165    9.3176 C.3     1  UNL1        0.1271
     12 C           6.3071   41.3571    9.5127 C.3     1  UNL1        0.0263
     13 C           3.9311   40.9577   10.0643 C.3     1  UNL1        0.0001
     14 C           4.8883   41.8312    9.2816 C.3     1  UNL1        0.0021
     15 C          14.4009   40.9408    9.0769 C.3     1  UNL1        0.2117
     16 C          15.0607   43.1676    6.3807 C.ar    1  UNL1        0.1693
     17 C          16.3218   43.1046    6.9454 C.ar    1  UNL1        0.0144
     18 C          16.2288   42.2076    7.9374 C.ar    1  UNL1        0.0536
     19 C          17.1752   42.4631    9.0408 C.3     1  UNL1        0.0455
     20 C          17.9939   43.6581    8.5089 C.3     1  UNL1        0.0110
     21 C          17.3373   44.1436    7.1992 C.3     1  UNL1        0.0295
     22 N          14.9716   41.7349    7.9986 N.ar    1  UNL1       -0.2459
     23 N          14.2470   42.3193    7.0526 N.ar    1  UNL1       -0.1655
     24 C          14.5643   44.2220    5.4435 C.3     1  UNL1        0.4362
     25 F          14.9807   45.4638    5.8849 F       1  UNL1       -0.1644
     26 F          13.1825   44.1950    5.3965 F       1  UNL1       -0.1644
     27 F          15.0622   43.9973    4.1730 F       1  UNL1       -0.1644
@<TRIPOS>BOND
     1    13    14    1
     2    14    12    1
     3    12    11    1
     4    11     9    1
     5     5     2    1
     6     5     6   ar
     7    15     1    1
     8    15    22    1
     9    16    17   ar
    10    18    22   ar
    11    19    18    1
    12    19    20    1
    13    20    21    1
    14    21    17    1
    15    24    16    1
    16    24    25    1
    17    24    26    1
    18    24    27    1
    19     7     9   ar
    20     8     7    1
    21     9    10   ar
    22     2     1   am
    23    22    23   ar
    24     5    10   ar
    25     1     3    2
    26    16    23   ar
    27    17    18   ar
    28     6     7   ar
    29     2     4    1
@<TRIPOS>MOLECULE
MolPort-002-774-944 20607528 CSSS00133006747 ChemDiv-F018-3348 MCULE-2222494242 PubChem-19591018 ZINC000020607528 ZINC20607528
 27 29 0 0 0
SMALL
GASTEIGER

@<TRIPOS>ATOM
      1 C          12.3830   41.4094    8.9256 C.2     1  UNL1        0.2521
      2 N          11.3495   40.4287    8.7831 N.am    1  UNL1       -0.2663
      3 O          12.1078   42.6306    9.0657 O.2     1  UNL1       -0.2726
      4 H          11.6307   39.4926    8.6657 H       1  UNL1        0.1564
      5 C           9.9422   40.6923    8.7966 C.ar    1  UNL1        0.1551
      6 C           9.2046   41.1380    9.8875 C.ar    1  UNL1        0.0505
      7 C           7.9277   41.2167    9.3644 C.ar    1  UNL1        0.0588
      8 C           6.7177   41.6468   10.1204 C.3     1  UNL1        0.0518
      9 N           7.9356   40.8466    8.0711 N.ar    1  UNL1       -0.2537
     10 N           9.1633   40.5182    7.7127 N.ar    1  UNL1       -0.1543
     11 C           6.7830   40.7769    7.1850 C.3     1  UNL1        0.1271
     12 C           6.8463   39.5149    6.3464 C.3     1  UNL1        0.0263
     13 C           8.5701   39.3277    4.5849 C.3     1  UNL1        0.0001
     14 C           8.2927   39.1689    6.0647 C.3     1  UNL1        0.0021
     15 C          13.8074   40.9725    8.9494 C.3     1  UNL1        0.2117
     16 C          14.9911   43.1100    6.3622 C.ar    1  UNL1        0.1693
     17 C          16.1879   42.8224    6.9933 C.ar    1  UNL1        0.0144
     18 C          15.8867   41.9340    7.9512 C.ar    1  UNL1        0.0536
     19 C          16.7953   42.0026    9.1122 C.3     1  UNL1        0.0455
     20 C          17.8334   43.0521    8.6626 C.3     1  UNL1        0.0110
     21 C          17.3467   43.6687    7.3340 C.3     1  UNL1        0.0295
     22 N          14.5665   41.6803    7.9287 N.ar    1  UNL1       -0.2459
     23 N          14.0079   42.3983    6.9624 N.ar    1  UNL1       -0.1655
     24 C          14.7356   44.2523    5.4315 C.3     1  UNL1        0.4362
     25 F          15.2520   43.9548    4.1844 F       1  UNL1       -0.1644
     26 F          15.3432   45.3964    5.9152 F       1  UNL1       -0.1644
     27 F          13.3755   44.4773    5.3217 F       1  UNL1       -0.1644
@<TRIPOS>BOND
     1    13    14    1
     2    14    12    1
     3    12    11    1
     4    11     9    1
     5     5     2    1
     6     5     6   ar
     7    15     1    1
     8    15    22    1
     9    16    17   ar
    10    18    22   ar
    11    19    18    1
    12    19    20    1
    13    20    21    1
    14    21    17    1
    15    24    16    1
    16    24    25    1
    17    24    26    1
    18    24    27    1
    19     7     9   ar
    20     8     7    1
    21     9    10   ar
    22     2     1   am
    23    22    23   ar
    24     5    10   ar
    25     1     3    2
    26    16    23   ar
    27    17    18   ar
    28     6     7   ar
    29     2     4    1
@<TRIPOS>MOLECULE
MolPort-002-774-944 20607528 CSSS00133006747 ChemDiv-F018-3348 MCULE-2222494242 PubChem-19591018 ZINC000020607528 ZINC20607528
 27 29 0 0 0
SMALL
GASTEIGER

@<TRIPOS>ATOM
      1 C          12.5577   39.7522    9.0643 C.2     1  UNL1        0.2521
      2 N          12.1953   40.7207   10.0547 N.am    1  UNL1       -0.2663
      3 O          11.6799   39.1245    8.4148 O.2     1  UNL1       -0.2726
      4 H          12.9285   41.1686   10.5355 H       1  UNL1        0.1564
      5 C          10.8585   41.0940   10.4061 C.ar    1  UNL1        0.1551
      6 C          10.3134   41.0730   11.6849 C.ar    1  UNL1        0.0505
      7 C           9.0221   41.5113   11.4594 C.ar    1  UNL1        0.0588
      8 C           7.9782   41.6766   12.5099 C.3     1  UNL1        0.0518
      9 N           8.8436   41.7663   10.1506 N.ar    1  UNL1       -0.2537
     10 N           9.9601   41.5099    9.4939 N.ar    1  UNL1       -0.1543
     11 C           7.6148   42.2240    9.5190 C.3     1  UNL1        0.1271
     12 C           7.9382   43.0677    8.3009 C.3     1  UNL1        0.0263
     13 C           5.8155   44.3310    8.3859 C.3     1  UNL1        0.0001
     14 C           7.3234   44.4415    8.4615 C.3     1  UNL1        0.0021
     15 C          13.9984   39.5126    8.7687 C.3     1  UNL1        0.2117
     16 C          16.3057   42.1550    8.1713 C.ar    1  UNL1        0.1693
     17 C          15.1884   42.6741    7.5424 C.ar    1  UNL1        0.0144
     18 C          14.2016   41.7977    7.7783 C.ar    1  UNL1        0.0536
     19 C          13.1789   41.7760    6.7143 C.3     1  UNL1        0.0455
     20 C          13.6447   42.9120    5.7796 C.3     1  UNL1        0.0110
     21 C          15.0261   43.3976    6.2676 C.3     1  UNL1        0.0295
     22 N          14.6750   40.7757    8.5124 N.ar    1  UNL1       -0.2459
     23 N          15.9634   40.9823    8.7550 N.ar    1  UNL1       -0.1655
     24 C          17.7201   42.5937    7.9629 C.3     1  UNL1        0.4362
     25 F          18.0049   43.6482    8.8098 F       1  UNL1       -0.1644
     26 F          17.8970   43.0007    6.6532 F       1  UNL1       -0.1644
     27 F          18.5837   41.5469    8.2292 F       1  UNL1       -0.1644
@<TRIPOS>BOND
     1    13    14    1
     2    14    12    1
     3    12    11    1
     4    11     9    1
     5     5     2    1
     6     5     6   ar
     7    15     1    1
     8    15    22    1
     9    16    17   ar
    10    18    22   ar
    11    19    18    1
    12    19    20    1
    13    20    21    1
    14    21    17    1
    15    24    16    1
    16    24    25    1
    17    24    26    1
    18    24    27    1
    19     7     9   ar
    20     8     7    1
    21     9    10   ar
    22     2     1   am
    23    22    23   ar
    24     5    10   ar
    25     1     3    2
    26    16    23   ar
    27    17    18   ar
    28     6     7   ar
    29     2     4    1
@<TRIPOS>MOLECULE
MolPort-002-774-944 20607528 CSSS00133006747 ChemDiv-F018-3348 MCULE-2222494242 PubChem-19591018 ZINC000020607528 ZINC20607528
 27 29 0 0 0
SMALL
GASTEIGER

@<TRIPOS>ATOM
      1 C          12.9110   39.9978    8.4569 C.2     1  UNL1        0.2521
      2 N          12.0565   40.8752    9.1989 N.am    1  UNL1       -0.2663
      3 O          12.4459   39.2244    7.5783 O.2     1  UNL1       -0.2726
      4 H          12.4803   41.4464    9.8795 H       1  UNL1        0.1564
      5 C          10.6390   40.9931    9.0362 C.ar    1  UNL1        0.1551
      6 C           9.8844   40.4327    8.0119 C.ar    1  UNL1        0.0505
      7 C           8.6063   40.8548    8.3258 C.ar    1  UNL1        0.0588
      8 C           7.3817   40.5360    7.5388 C.3     1  UNL1        0.0518
      9 N           8.6285   41.5982    9.4468 N.ar    1  UNL1       -0.2537
     10 N           9.8688   41.6944    9.8890 N.ar    1  UNL1       -0.1543
     11 C           7.4860   42.2382   10.0821 C.3     1  UNL1        0.1271
     12 C           7.1382   41.5210   11.3723 C.3     1  UNL1        0.0263
     13 C           8.7850   41.0707   13.1596 C.3     1  UNL1        0.0001
     14 C           7.9193   42.1325   12.5155 C.3     1  UNL1        0.0021
     15 C          14.3807   40.0299    8.7004 C.3     1  UNL1        0.2117
     16 C          16.4099   42.7848    7.7228 C.ar    1  UNL1        0.1693
     17 C          15.2128   43.1577    7.1386 C.ar    1  UNL1        0.0144
     18 C          14.3221   42.2298    7.5167 C.ar    1  UNL1        0.0536
     19 C          13.2358   42.0355    6.5367 C.3     1  UNL1        0.0455
     20 C          13.5396   43.1198    5.4815 C.3     1  UNL1        0.0110
     21 C          14.9044   43.7533    5.8252 C.3     1  UNL1        0.0295
     22 N          14.9289   41.3156    8.2937 N.ar    1  UNL1       -0.2459
     23 N          16.2084   41.6435    8.4228 N.ar    1  UNL1       -0.1655
     24 C          17.7648   43.3143    7.3756 C.3     1  UNL1        0.4362
     25 F          18.3754   43.8009    8.5161 F       1  UNL1       -0.1644
     26 F          17.6465   44.3357    6.4510 F       1  UNL1       -0.1644
     27 F          18.5418   42.3060    6.8353 F       1  UNL1       -0.1644
@<TRIPOS>BOND
     1    13    14    1
     2    14    12    1
     3    12    11    1
     4    11     9    1
     5     5     2    1
     6     5     6   ar
     7    15     1    1
     8    15    22    1
     9    16    17   ar
    10    18    22   ar
    11    19    18    1
    12    19    20    1
    13    20    21    1
    14    21    17    1
    15    24    16    1
    16    24    25    1
    17    24    26    1
    18    24    27    1
    19     7     9   ar
    20     8     7    1
    21     9    10   ar
    22     2     1   am
    23    22    23   ar
    24     5    10   ar
    25     1     3    2
    26    16    23   ar
    27    17    18   ar
    28     6     7   ar
    29     2     4    1
@<TRIPOS>MOLECULE
MolPort-002-774-944 20607528 CSSS00133006747 ChemDiv-F018-3348 MCULE-2222494242 PubChem-19591018 ZINC000020607528 ZINC20607528
 27 29 0 0 0
SMALL
GASTEIGER

@<TRIPOS>ATOM
      1 C          11.3762   41.4208    7.1754 C.2     1  UNL1        0.2521
      2 N          11.4101   41.1840    8.5872 N.am    1  UNL1       -0.2663
      3 O          10.3102   41.7615    6.5973 O.2     1  UNL1       -0.2726
      4 H          12.2715   40.9091    8.9766 H       1  UNL1        0.1564
      5 C          10.2992   41.3123    9.4812 C.ar    1  UNL1        0.1551
      6 C          10.3427   41.1743   10.8639 C.ar    1  UNL1        0.0505
      7 C           9.0240   41.3847   11.2203 C.ar    1  UNL1        0.0588
      8 C           8.4970   41.3472   12.6136 C.3     1  UNL1        0.0518
      9 N           8.2832   41.6275   10.1239 N.ar    1  UNL1       -0.2537
     10 N           9.0521   41.5811    9.0515 N.ar    1  UNL1       -0.1543
     11 C           6.8493   41.8750   10.0871 C.3     1  UNL1        0.1271
     12 C           6.4252   42.2725    8.6863 C.3     1  UNL1        0.0263
     13 C           4.3832   43.6477    8.9057 C.3     1  UNL1        0.0001
     14 C           5.8834   43.6857    8.7056 C.3     1  UNL1        0.0021
     15 C          12.6328   41.3016    6.3835 C.3     1  UNL1        0.2117
     16 C          15.5905   42.3257    8.0764 C.ar    1  UNL1        0.1693
     17 C          15.3033   43.4883    7.3843 C.ar    1  UNL1        0.0144
     18 C          14.1363   43.2607    6.7647 C.ar    1  UNL1        0.0536
     19 C          13.9859   44.0264    5.5119 C.3     1  UNL1        0.0455
     20 C          15.2595   44.8976    5.4978 C.3     1  UNL1        0.0110
     21 C          16.1670   44.4382    6.6586 C.3     1  UNL1        0.0295
     22 N          13.7138   42.0159    7.0469 N.ar    1  UNL1       -0.2459
     23 N          14.5989   41.4331    7.8458 N.ar    1  UNL1       -0.1655
     24 C          16.9090   41.9600    8.6800 C.3     1  UNL1        0.4362
     25 F          16.7693   40.8058    9.4274 F       1  UNL1       -0.1644
     26 F          17.3496   42.9830    9.4995 F       1  UNL1       -0.1644
     27 F          17.8432   41.7489    7.6823 F       1  UNL1       -0.1644
@<TRIPOS>BOND
     1    13    14    1
     2    14    12    1
     3    12    11    1
     4    11     9    1
     5     5     2    1
     6     5     6   ar
     7    15     1    1
     8    15    22    1
     9    16    17   ar
    10    18    22   ar
    11    19    18    1
    12    19    20    1
    13    20    21    1
    14    21    17    1
    15    24    16    1
    16    24    25    1
    17    24    26    1
    18    24    27    1
    19     7     9   ar
    20     8     7    1
    21     9    10   ar
    22     2     1   am
    23    22    23   ar
    24     5    10   ar
    25     1     3    2
    26    16    23   ar
    27    17    18   ar
    28     6     7   ar
    29     2     4    1
@<TRIPOS>MOLECULE
MolPort-002-774-944 20607528 CSSS00133006747 ChemDiv-F018-3348 MCULE-2222494242 PubChem-19591018 ZINC000020607528 ZINC20607528
 27 29 0 0 0
SMALL
GASTEIGER

@<TRIPOS>ATOM
      1 C           9.5507   41.7682    8.1452 C.2     1  UNL1        0.2521
      2 N          10.6790   42.2695    8.8703 N.am    1  UNL1       -0.2663
      3 O           9.4416   40.5426    7.8756 O.2     1  UNL1       -0.2726
      4 H          10.7107   43.2390    9.0390 H       1  UNL1        0.1564
      5 C          11.7651   41.4825    9.3712 C.ar    1  UNL1        0.1551
      6 C          11.7271   40.6527   10.4861 C.ar    1  UNL1        0.0505
      7 C          13.0150   40.1524   10.5220 C.ar    1  UNL1        0.0588
      8 C          13.5341   39.1962   11.5403 C.3     1  UNL1        0.0518
      9 N          13.7340   40.6562    9.5027 N.ar    1  UNL1       -0.2537
     10 N          12.9808   41.4763    8.7932 N.ar    1  UNL1       -0.1543
     11 C          15.1352   40.3852    9.2165 C.3     1  UNL1        0.1271
     12 C          15.7361   41.5308    8.4250 C.3     1  UNL1        0.0263
     13 C          17.5410   43.2055    8.6417 C.3     1  UNL1        0.0001
     14 C          17.1646   41.7572    8.8714 C.3     1  UNL1        0.0021
     15 C           8.4673   42.7067    7.7380 C.3     1  UNL1        0.2117
     16 C           5.8147   41.5948    9.8335 C.ar    1  UNL1        0.1693
     17 C           5.0993   42.3813    8.9487 C.ar    1  UNL1        0.0144
     18 C           5.9876   42.7949    8.0336 C.ar    1  UNL1        0.0536
     19 C           5.6421   44.1008    7.4389 C.3     1  UNL1        0.0455
     20 C           4.2706   44.4062    8.0769 C.3     1  UNL1        0.0110
     21 C           3.9953   43.3371    9.1555 C.3     1  UNL1        0.0295
     22 N           7.2017   42.2997    8.3309 N.ar    1  UNL1       -0.2459
     23 N           7.1080   41.5669    9.4335 N.ar    1  UNL1       -0.1655
     24 C           5.3562   41.1430   11.1833 C.3     1  UNL1        0.4362
     25 F           6.4509   40.7739   11.9421 F       1  UNL1       -0.1644
     26 F           4.5069   40.0596   11.0518 F       1  UNL1       -0.1644
     27 F           4.6820   42.1683   11.8210 F       1  UNL1       -0.1644
@<TRIPOS>BOND
     1    13    14    1
     2    14    12    1
     3    12    11    1
     4    11     9    1
     5     5     2    1
     6     5     6   ar
     7    15     1    1
     8    15    22    1
     9    16    17   ar
    10    18    22   ar
    11    19    18    1
    12    19    20    1
    13    20    21    1
    14    21    17    1
    15    24    16    1
    16    24    25    1
    17    24    26    1
    18    24    27    1
    19     7     9   ar
    20     8     7    1
    21     9    10   ar
    22     2     1   am
    23    22    23   ar
    24     5    10   ar
    25     1     3    2
    26    16    23   ar
    27    17    18   ar
    28     6     7   ar
    29     2     4    1
@<TRIPOS>MOLECULE
MolPort-002-774-944 20607528 CSSS00133006747 ChemDiv-F018-3348 MCULE-2222494242 PubChem-19591018 ZINC000020607528 ZINC20607528
 27 29 0 0 0
SMALL
GASTEIGER

@<TRIPOS>ATOM
      1 C           9.7454   41.6726   10.5127 C.2     1  UNL1        0.2521
      2 N           8.7249   41.2238    9.6142 N.am    1  UNL1       -0.2663
      3 O           9.7269   42.8382   10.9899 O.2     1  UNL1       -0.2726
      4 H           8.8029   40.3057    9.2673 H       1  UNL1        0.1564
      5 C           7.6008   41.9951    9.1767 C.ar    1  UNL1        0.1551
      6 C           7.5844   42.8805    8.1051 C.ar    1  UNL1        0.0505
      7 C           6.2835   43.3469    8.1312 C.ar    1  UNL1        0.0588
      8 C           5.7123   44.3445    7.1829 C.3     1  UNL1        0.0518
      9 N           5.6068   42.7693    9.1401 N.ar    1  UNL1       -0.2537
     10 N           6.4042   41.9425    9.7913 N.ar    1  UNL1       -0.1543
     11 C           4.2198   43.0183    9.5047 C.3     1  UNL1        0.1271
     12 C           3.4878   41.7040    9.6970 C.3     1  UNL1        0.0263
     13 C           3.9850   40.1909   11.5871 C.3     1  UNL1        0.0001
     14 C           3.2699   41.4599   11.1749 C.3     1  UNL1        0.0021
     15 C          10.8255   40.7311   10.9216 C.3     1  UNL1        0.2117
     16 C          13.0591   41.2433    8.1992 C.ar    1  UNL1        0.1693
     17 C          13.7746   40.2994    8.9138 C.ar    1  UNL1        0.0144
     18 C          12.9846   39.9468    9.9379 C.ar    1  UNL1        0.0536
     19 C          13.7393   39.5139   11.1301 C.3     1  UNL1        0.0455
     20 C          15.1993   39.5473   10.6317 C.3     1  UNL1        0.0110
     21 C          15.2113   40.1861    9.2267 C.3     1  UNL1        0.0295
     22 N          11.8332   40.6383    9.8752 N.ar    1  UNL1       -0.2459
     23 N          11.8701   41.4382    8.8169 N.ar    1  UNL1       -0.1655
     24 C          13.6060   42.1574    7.1495 C.3     1  UNL1        0.4362
     25 F          13.3435   43.4688    7.4985 F       1  UNL1       -0.1644
     26 F          13.0114   41.8822    5.9318 F       1  UNL1       -0.1644
     27 F          14.9725   41.9796    7.0334 F       1  UNL1       -0.1644
@<TRIPOS>BOND
     1    13    14    1
     2    14    12    1
     3    12    11    1
     4    11     9    1
     5     5     2    1
     6     5     6   ar
     7    15     1    1
     8    15    22    1
     9    16    17   ar
    10    18    22   ar
    11    19    18    1
    12    19    20    1
    13    20    21    1
    14    21    17    1
    15    24    16    1
    16    24    25    1
    17    24    26    1
    18    24    27    1
    19     7     9   ar
    20     8     7    1
    21     9    10   ar
    22     2     1   am
    23    22    23   ar
    24     5    10   ar
    25     1     3    2
    26    16    23   ar
    27    17    18   ar
    28     6     7   ar
    29     2     4    1
@<TRIPOS>MOLECULE
MolPort-002-774-944 20607528 CSSS00133006747 ChemDiv-F018-3348 MCULE-2222494242 PubChem-19591018 ZINC000020607528 ZINC20607528
 27 29 0 0 0
SMALL
GASTEIGER

@<TRIPOS>ATOM
      1 C          10.5113   41.5640    6.2401 C.2     1  UNL1        0.2521
      2 N          10.2824   41.6791    7.6489 N.am    1  UNL1       -0.2663
      3 O           9.5702   41.6986    5.4138 O.2     1  UNL1       -0.2726
      4 H          11.0575   41.5519    8.2424 H       1  UNL1        0.1564
      5 C           9.0234   41.9633    8.2686 C.ar    1  UNL1        0.1551
      6 C           8.4691   41.2791    9.3445 C.ar    1  UNL1        0.0505
      7 C           7.2720   41.9448    9.5288 C.ar    1  UNL1        0.0588
      8 C           6.2596   41.6137   10.5709 C.3     1  UNL1        0.0518
      9 N           7.1525   42.9367    8.6279 N.ar    1  UNL1       -0.2537
     10 N           8.2170   42.9553    7.8469 N.ar    1  UNL1       -0.1543
     11 C           6.0244   43.8457    8.4877 C.3     1  UNL1        0.1271
     12 C           4.8723   43.3843    9.3594 C.3     1  UNL1        0.0263
     13 C           3.7598   44.9784    7.8329 C.3     1  UNL1        0.0001
     14 C           3.5613   43.7525    8.6986 C.3     1  UNL1        0.0021
     15 C          11.8943   41.3210    5.7414 C.3     1  UNL1        0.2117
     16 C          14.2366   41.0545    8.4071 C.ar    1  UNL1        0.1693
     17 C          14.6503   42.2518    7.8516 C.ar    1  UNL1        0.0144
     18 C          13.7735   42.5178    6.8730 C.ar    1  UNL1        0.0536
     19 C          14.3561   43.3095    5.7719 C.3     1  UNL1        0.0455
     20 C          15.7786   43.6072    6.2906 C.3     1  UNL1        0.0110
     21 C          15.9939   42.8000    7.5883 C.3     1  UNL1        0.0295
     22 N          12.8583   41.5349    6.8110 N.ar    1  UNL1       -0.2459
     23 N          13.1350   40.6316    7.7431 N.ar    1  UNL1       -0.1655
     24 C          15.0346   40.1841    9.3247 C.3     1  UNL1        0.4362
     25 F          14.4505   40.1774   10.5773 F       1  UNL1       -0.1644
     26 F          16.3256   40.6691    9.4265 F       1  UNL1       -0.1644
     27 F          15.0769   38.8923    8.8327 F       1  UNL1       -0.1644
@<TRIPOS>BOND
     1    13    14    1
     2    14    12    1
     3    12    11    1
     4    11     9    1
     5     5     2    1
     6     5     6   ar
     7    15     1    1
     8    15    22    1
     9    16    17   ar
    10    18    22   ar
    11    19    18    1
    12    19    20    1
    13    20    21    1
    14    21    17    1
    15    24    16    1
    16    24    25    1
    17    24    26    1
    18    24    27    1
    19     7     9   ar
    20     8     7    1
    21     9    10   ar
    22     2     1   am
    23    22    23   ar
    24     5    10   ar
    25     1     3    2
    26    16    23   ar
    27    17    18   ar
    28     6     7   ar
    29     2     4    1
@<TRIPOS>MOLECULE
MolPort-002-774-944 20607528 CSSS00133006747 ChemDiv-F018-3348 MCULE-2222494242 PubChem-19591018 ZINC000020607528 ZINC20607528
 27 29 0 0 0
SMALL
GASTEIGER

@<TRIPOS>ATOM
      1 C           9.4603   41.9353   11.3929 C.2     1  UNL1        0.2521
      2 N           9.9918   40.6871   10.9352 N.am    1  UNL1       -0.2663
      3 O          10.1122   43.0059   11.2689 O.2     1  UNL1       -0.2726
      4 H           9.4376   39.8849   11.0718 H       1  UNL1        0.1564
      5 C          11.2599   40.5050   10.2958 C.ar    1  UNL1        0.1551
      6 C          11.7298   41.2133    9.1957 C.ar    1  UNL1        0.0505
      7 C          12.9725   40.6442    8.9907 C.ar    1  UNL1        0.0588
      8 C          13.9254   41.0334    7.9131 C.3     1  UNL1        0.0518
      9 N          13.1970   39.6848    9.9066 N.ar    1  UNL1       -0.2537
     10 N          12.1530   39.5864   10.7090 N.ar    1  UNL1       -0.1543
     11 C          14.3818   38.8451   10.0060 C.3     1  UNL1        0.1271
     12 C          14.9632   38.9282   11.4043 C.3     1  UNL1        0.0263
     13 C          16.9945   39.7518   10.2621 C.3     1  UNL1        0.0001
     14 C          16.4709   38.8162   11.3309 C.3     1  UNL1        0.0021
     15 C           8.0953   41.9741   11.9895 C.3     1  UNL1        0.2117
     16 C           5.1609   41.3175   10.0866 C.ar    1  UNL1        0.1693
     17 C           5.8426   42.1242    9.1935 C.ar    1  UNL1        0.0144
     18 C           7.0304   42.3713    9.7641 C.ar    1  UNL1        0.0536
     19 C           7.6088   43.6679    9.3609 C.3     1  UNL1        0.0455
     20 C           6.5982   44.1723    8.3095 C.3     1  UNL1        0.0110
     21 C           5.3882   43.2142    8.3099 C.3     1  UNL1        0.0295
     22 N           7.0907   41.7572   10.9586 N.ar    1  UNL1       -0.2459
     23 N           5.9496   41.1126   11.1679 N.ar    1  UNL1       -0.1655
     24 C           3.6976   41.0099   10.0596 C.3     1  UNL1        0.4362
     25 F           3.2561   40.9854    8.7501 F       1  UNL1       -0.1644
     26 F           3.0014   41.9800   10.7571 F       1  UNL1       -0.1644
     27 F           3.4626   39.7792   10.6449 F       1  UNL1       -0.1644
@<TRIPOS>BOND
     1    13    14    1
     2    14    12    1
     3    12    11    1
     4    11     9    1
     5     5     2    1
     6     5     6   ar
     7    15     1    1
     8    15    22    1
     9    16    17   ar
    10    18    22   ar
    11    19    18    1
    12    19    20    1
    13    20    21    1
    14    21    17    1
    15    24    16    1
    16    24    25    1
    17    24    26    1
    18    24    27    1
    19     7     9   ar
    20     8     7    1
    21     9    10   ar
    22     2     1   am
    23    22    23   ar
    24     5    10   ar
    25     1     3    2
    26    16    23   ar
    27    17    18   ar
    28     6     7   ar
    29     2     4    1
@<TRIPOS>MOLECULE
MolPort-002-774-944 20607528 CSSS00133006747 ChemDiv-F018-3348 MCULE-2222494242 PubChem-19591018 ZINC000020607528 ZINC20607528
 27 29 0 0 0
SMALL
GASTEIGER

@<TRIPOS>ATOM
      1 C           9.1900   41.6690   11.4493 C.2     1  UNL1        0.2521
      2 N           9.7550   40.5500   10.7572 N.am    1  UNL1       -0.2663
      3 O           9.8592   42.7174   11.6486 O.2     1  UNL1       -0.2726
      4 H           9.1839   39.7562   10.6438 H       1  UNL1        0.1564
      5 C          11.0789   40.4862   10.2158 C.ar    1  UNL1        0.1551
      6 C          12.2004   39.9731   10.8575 C.ar    1  UNL1        0.0505
      7 C          13.1899   40.1603    9.9109 C.ar    1  UNL1        0.0588
      8 C          14.6215   39.7836   10.0825 C.3     1  UNL1        0.0518
      9 N          12.6722   40.7346    8.8100 N.ar    1  UNL1       -0.2537
     10 N          11.3805   40.9438    8.9863 N.ar    1  UNL1       -0.1543
     11 C          13.4006   41.1095    7.6069 C.3     1  UNL1        0.1271
     12 C          12.9949   42.5025    7.1653 C.3     1  UNL1        0.0263
     13 C          15.3257   43.2811    6.8997 C.3     1  UNL1        0.0001
     14 C          14.0148   43.0370    6.1828 C.3     1  UNL1        0.0021
     15 C           7.7729   41.6070   11.9057 C.3     1  UNL1        0.2117
     16 C           5.0109   41.9953    9.6958 C.ar    1  UNL1        0.1693
     17 C           5.9856   42.6552    8.9694 C.ar    1  UNL1        0.0144
     18 C           7.1215   42.4991    9.6643 C.ar    1  UNL1        0.0536
     19 C           8.0750   43.6096    9.4739 C.3     1  UNL1        0.0455
     20 C           7.3692   44.4776    8.4111 C.3     1  UNL1        0.0110
     21 C           5.9517   43.9077    8.1915 C.3     1  UNL1        0.0295
     22 N           6.8733   41.7832   10.7749 N.ar    1  UNL1       -0.2459
     23 N           5.5832   41.4732   10.8063 N.ar    1  UNL1       -0.1655
     24 C           3.5326   42.1207    9.5078 C.3     1  UNL1        0.4362
     25 F           2.9158   42.1948   10.7424 F       1  UNL1       -0.1644
     26 F           3.0517   41.0194    8.8236 F       1  UNL1       -0.1644
     27 F           3.2437   43.2623    8.7827 F       1  UNL1       -0.1644
@<TRIPOS>BOND
     1    13    14    1
     2    14    12    1
     3    12    11    1
     4    11     9    1
     5     5     2    1
     6     5     6   ar
     7    15     1    1
     8    15    22    1
     9    16    17   ar
    10    18    22   ar
    11    19    18    1
    12    19    20    1
    13    20    21    1
    14    21    17    1
    15    24    16    1
    16    24    25    1
    17    24    26    1
    18    24    27    1
    19     7     9   ar
    20     8     7    1
    21     9    10   ar
    22     2     1   am
    23    22    23   ar
    24     5    10   ar
    25     1     3    2
    26    16    23   ar
    27    17    18   ar
    28     6     7   ar
    29     2     4    1
