@<TRIPOS>MOLECULE
Molport-046-654-148 MCULE-3101607215 PubChem-165827910
 34 38 0 0 0
SMALL
GASTEIGER

@<TRIPOS>ATOM
      1 C          10.0403   42.8931    9.9693 C.2     1  UNL1        0.4065
      2 N          10.5394   41.6801    9.3960 N.am    1  UNL1       -0.2337
      3 O          10.8075   43.8739   10.1720 O.2     1  UNL1       -0.2261
      4 H           9.8937   40.9508    9.2530 H       1  UNL1        0.1597
      5 C          13.9526   40.2925    9.3273 C.ar    1  UNL1        0.1677
      6 C          12.6731   40.5117    9.6989 C.ar    1  UNL1        0.1488
      7 C          11.8983   41.4366    9.0126 C.ar    1  UNL1        0.1592
      8 C          13.7865   41.8568    7.6079 C.ar    1  UNL1        0.2015
      9 C          13.4960   39.0376   10.9871 C.ar    1  UNL1        0.1802
     10 N          14.4942   39.3678   10.1246 N.ar    1  UNL1       -0.2857
     11 N          12.4839   42.0974    7.9671 N.ar    1  UNL1       -0.2071
     12 N          14.5381   40.9427    8.2927 N.ar    1  UNL1       -0.2048
     13 N          12.3483   39.7337   10.7485 N.ar    1  UNL1       -0.2194
     14 C          16.8365   39.7767   10.7347 C.3     1  UNL1        0.0367
     15 C          15.8514   38.8339   10.0635 C.3     1  UNL1        0.1868
     16 C          15.9197   37.4646   10.6602 C.2     1  UNL1        0.3347
     17 O          16.2452   37.3173   12.0014 O.3     1  UNL1       -0.4789
     18 O          15.6917   36.4446    9.9569 O.2     1  UNL1       -0.2482
     19 H          16.4155   38.0734   12.5280 H       1  UNL1        0.2951
     20 O           8.6862   42.9760   10.3001 O.3     1  UNL1       -0.4337
     21 C           7.9456   41.8578   10.7761 C.3     1  UNL1        0.2187
     22 C           6.8456   41.4806    9.7888 C.3     1  UNL1        0.0884
     23 C           5.5098   41.4832   10.4789 C.ar    1  UNL1       -0.0148
     24 C           4.6610   42.4360    9.9449 C.ar    1  UNL1       -0.0038
     25 C           3.3609   42.6139   10.4153 C.ar    1  UNL1       -0.0003
     26 C           2.9223   41.7885   11.4629 C.ar    1  UNL1       -0.0000
     27 C           3.7780   40.8121   12.0090 C.ar    1  UNL1       -0.0003
     28 C           5.0834   40.6509   11.5157 C.ar    1  UNL1       -0.0038
     29 C           5.3602   43.1207    8.8844 C.ar    1  UNL1       -0.0038
     30 C           6.6290   42.5795    8.7821 C.ar    1  UNL1       -0.0148
     31 C           7.5216   43.0378    7.8109 C.ar    1  UNL1       -0.0038
     32 C           7.1053   44.0691    6.9525 C.ar    1  UNL1       -0.0003
     33 C           5.8139   44.6189    7.0690 C.ar    1  UNL1       -0.0000
     34 C           4.9225   44.1424    8.0433 C.ar    1  UNL1       -0.0003
@<TRIPOS>BOND
     1    15    14    1
     2    15    10    1
     3    15    16    1
     4     5    12   ar
     5     6     7   ar
     6     6    13   ar
     7     7     2    1
     8     8    11   ar
     9     1    20    1
    10    21    20    1
    11    21    22    1
    12    22    23    1
    13    22    30    1
    14    23    24   ar
    15    24    29    1
    16    25    26   ar
    17    27    28   ar
    18    30    31   ar
    19    32    33   ar
    20    34    29   ar
    21     9    10   ar
    22    16    17    1
    23    10     5   ar
    24     2     1   am
    25     5     6   ar
    26     7    11   ar
    27     8    12   ar
    28     1     3    2
    29    24    25   ar
    30    26    27   ar
    31    28    23   ar
    32    29    30   ar
    33    31    32   ar
    34    33    34   ar
    35     9    13   ar
    36    16    18    2
    37     2     4    1
    38    17    19    1
@<TRIPOS>MOLECULE
Molport-046-654-148 MCULE-3101607215 PubChem-165827910
 34 38 0 0 0
SMALL
GASTEIGER

@<TRIPOS>ATOM
      1 C          11.1131   42.4251    8.7896 C.2     1  UNL1        0.4065
      2 N          10.6860   42.5423   10.1508 N.am    1  UNL1       -0.2337
      3 O          10.3346   41.9719    7.9062 O.2     1  UNL1       -0.2261
      4 H          11.3328   42.9101   10.7955 H       1  UNL1        0.1597
      5 C           7.0316   42.2070   10.4869 C.ar    1  UNL1        0.1677
      6 C           8.2393   42.5643   10.0000 C.ar    1  UNL1        0.1488
      7 C           9.3977   42.1701   10.6553 C.ar    1  UNL1        0.1592
      8 C           8.0165   41.0689   12.2661 C.ar    1  UNL1        0.2015
      9 C           6.7445   43.3560    8.7160 C.ar    1  UNL1        0.1802
     10 N           6.0721   42.6947    9.6959 N.ar    1  UNL1       -0.2857
     11 N           9.2552   41.4200   11.7911 N.ar    1  UNL1       -0.2071
     12 N           6.8837   41.4639   11.6102 N.ar    1  UNL1       -0.2048
     13 N           8.0969   43.2939    8.8777 N.ar    1  UNL1       -0.2194
     14 C           3.8769   43.6112    9.0903 C.3     1  UNL1        0.0367
     15 C           4.6299   42.5350    9.8550 C.3     1  UNL1        0.1868
     16 C           4.1897   41.1675    9.4404 C.2     1  UNL1        0.3347
     17 O           4.6179   40.6487    8.2263 O.3     1  UNL1       -0.4789
     18 O           3.4295   40.4855   10.1780 O.2     1  UNL1       -0.2482
     19 H           5.1834   41.1527    7.6748 H       1  UNL1        0.2951
     20 O          12.4082   42.8234    8.4520 O.3     1  UNL1       -0.4337
     21 C          12.8701   42.8618    7.1065 C.3     1  UNL1        0.2187
     22 C          14.0475   41.9112    6.9137 C.3     1  UNL1        0.0884
     23 C          15.3402   42.6288    7.1870 C.ar    1  UNL1       -0.0148
     24 C          16.0101   42.0812    8.2662 C.ar    1  UNL1       -0.0038
     25 C          17.2408   42.5727    8.6985 C.ar    1  UNL1       -0.0003
     26 C          17.7975   43.6564    8.0009 C.ar    1  UNL1       -0.0000
     27 C          17.1248   44.2169    6.8976 C.ar    1  UNL1       -0.0003
     28 C          15.8864   43.7018    6.4800 C.ar    1  UNL1       -0.0038
     29 C          15.2242   40.9837    8.7764 C.ar    1  UNL1       -0.0038
     30 C          14.0821   40.8729    8.0040 C.ar    1  UNL1       -0.0148
     31 C          13.1462   39.8682    8.2583 C.ar    1  UNL1       -0.0038
     32 C          13.3855   38.9846    9.3239 C.ar    1  UNL1       -0.0003
     33 C          14.5478   39.1098   10.1094 C.ar    1  UNL1       -0.0000
     34 C          15.4858   40.1181    9.8372 C.ar    1  UNL1       -0.0003
@<TRIPOS>BOND
     1    15    14    1
     2    15    10    1
     3    15    16    1
     4     5    12   ar
     5     6     7   ar
     6     6    13   ar
     7     7     2    1
     8     8    11   ar
     9     1    20    1
    10    21    20    1
    11    21    22    1
    12    22    23    1
    13    22    30    1
    14    23    24   ar
    15    24    29    1
    16    25    26   ar
    17    27    28   ar
    18    30    31   ar
    19    32    33   ar
    20    34    29   ar
    21     9    10   ar
    22    16    17    1
    23    10     5   ar
    24     2     1   am
    25     5     6   ar
    26     7    11   ar
    27     8    12   ar
    28     1     3    2
    29    24    25   ar
    30    26    27   ar
    31    28    23   ar
    32    29    30   ar
    33    31    32   ar
    34    33    34   ar
    35     9    13   ar
    36    16    18    2
    37     2     4    1
    38    17    19    1
@<TRIPOS>MOLECULE
Molport-046-654-148 MCULE-3101607215 PubChem-165827910
 34 38 0 0 0
SMALL
GASTEIGER

@<TRIPOS>ATOM
      1 C           9.9362   40.9538   10.3340 C.2     1  UNL1        0.4065
      2 N          10.3788   39.9569    9.4070 N.am    1  UNL1       -0.2337
      3 O          10.4506   41.0399   11.4827 O.2     1  UNL1       -0.2261
      4 H           9.9475   39.9417    8.5221 H       1  UNL1        0.1597
      5 C          13.6810   38.4161    9.9561 C.ar    1  UNL1        0.1677
      6 C          12.7326   39.3480    9.7207 C.ar    1  UNL1        0.1488
      7 C          11.3960   38.9792    9.6567 C.ar    1  UNL1        0.1592
      8 C          12.0796   36.7276   10.0785 C.ar    1  UNL1        0.2015
      9 C          14.6231   40.3151    9.7443 C.ar    1  UNL1        0.1802
     10 N          14.8822   39.0002    9.9749 N.ar    1  UNL1       -0.2857
     11 N          11.0977   37.6562    9.8399 N.ar    1  UNL1       -0.2071
     12 N          13.3924   37.1051   10.1392 N.ar    1  UNL1       -0.2048
     13 N          13.2926   40.5642    9.5808 N.ar    1  UNL1       -0.2194
     14 C          17.3156   39.2860    9.8245 C.3     1  UNL1        0.0367
     15 C          16.1730   38.3585   10.2043 C.3     1  UNL1        0.1868
     16 C          16.3003   37.8937   11.6198 C.2     1  UNL1        0.3347
     17 O          17.2090   36.8924   11.9329 O.3     1  UNL1       -0.4789
     18 O          15.5869   38.3965   12.5282 O.2     1  UNL1       -0.2482
     19 H          17.7414   36.5158   11.2602 H       1  UNL1        0.2951
     20 O           8.9244   41.8344    9.9458 O.3     1  UNL1       -0.4337
     21 C           7.6776   41.9148   10.6273 C.3     1  UNL1        0.2187
     22 C           6.5311   41.5217    9.7009 C.3     1  UNL1        0.0884
     23 C           5.2517   41.4088   10.4826 C.ar    1  UNL1       -0.0148
     24 C           4.3132   42.3341   10.0625 C.ar    1  UNL1       -0.0038
     25 C           3.0433   42.4091   10.6325 C.ar    1  UNL1       -0.0003
     26 C           2.7305   41.5070   11.6617 C.ar    1  UNL1       -0.0000
     27 C           3.6781   40.5580   12.0922 C.ar    1  UNL1       -0.0003
     28 C           4.9507   40.5011   11.4999 C.ar    1  UNL1       -0.0038
     29 C           4.8925   43.1123    8.9942 C.ar    1  UNL1       -0.0038
     30 C           6.1789   42.6547    8.7734 C.ar    1  UNL1       -0.0148
     31 C           6.9702   43.2145    7.7681 C.ar    1  UNL1       -0.0038
     32 C           6.4340   44.2605    6.9987 C.ar    1  UNL1       -0.0003
     33 C           5.1256   44.7246    7.2358 C.ar    1  UNL1       -0.0000
     34 C           4.3368   44.1467    8.2431 C.ar    1  UNL1       -0.0003
@<TRIPOS>BOND
     1    15    14    1
     2    15    10    1
     3    15    16    1
     4     5    12   ar
     5     6     7   ar
     6     6    13   ar
     7     7     2    1
     8     8    11   ar
     9     1    20    1
    10    21    20    1
    11    21    22    1
    12    22    23    1
    13    22    30    1
    14    23    24   ar
    15    24    29    1
    16    25    26   ar
    17    27    28   ar
    18    30    31   ar
    19    32    33   ar
    20    34    29   ar
    21     9    10   ar
    22    16    17    1
    23    10     5   ar
    24     2     1   am
    25     5     6   ar
    26     7    11   ar
    27     8    12   ar
    28     1     3    2
    29    24    25   ar
    30    26    27   ar
    31    28    23   ar
    32    29    30   ar
    33    31    32   ar
    34    33    34   ar
    35     9    13   ar
    36    16    18    2
    37     2     4    1
    38    17    19    1
@<TRIPOS>MOLECULE
Molport-046-654-148 MCULE-3101607215 PubChem-165827910
 34 38 0 0 0
SMALL
GASTEIGER

@<TRIPOS>ATOM
      1 C          10.2553   43.1019   10.0906 C.2     1  UNL1        0.4065
      2 N          10.6420   42.1559    9.0882 N.am    1  UNL1       -0.2337
      3 O          11.1226   43.6722   10.8077 O.2     1  UNL1       -0.2261
      4 H           9.9233   41.7483    8.5528 H       1  UNL1        0.1597
      5 C          13.8774   40.4014    9.2721 C.ar    1  UNL1        0.1677
      6 C          12.6106   40.7724    9.5568 C.ar    1  UNL1        0.1488
      7 C          11.9854   41.7517    8.7973 C.ar    1  UNL1        0.1592
      8 C          13.9879   41.9127    7.5016 C.ar    1  UNL1        0.2015
      9 C          13.1870   39.2635   10.9355 C.ar    1  UNL1        0.1802
     10 N          14.2648   39.4518   10.1278 N.ar    1  UNL1       -0.2857
     11 N          12.7015   42.3070    7.7718 N.ar    1  UNL1       -0.2071
     12 N          14.5914   40.9466    8.2578 N.ar    1  UNL1       -0.2048
     13 N          12.1400   40.0723   10.6059 N.ar    1  UNL1       -0.2194
     14 C          16.6282   39.6734   10.7529 C.3     1  UNL1        0.0367
     15 C          15.5552   38.7706   10.1667 C.3     1  UNL1        0.1868
     16 C          15.4621   37.4814   10.9183 C.2     1  UNL1        0.3347
     17 O          14.9676   36.3515   10.2818 O.3     1  UNL1       -0.4789
     18 O          15.8211   37.4126   12.1239 O.2     1  UNL1       -0.2482
     19 H          14.6996   36.3984    9.3852 H       1  UNL1        0.2951
     20 O           8.8992   43.3871   10.2620 O.3     1  UNL1       -0.4337
     21 C           7.8934   42.3817   10.2060 C.3     1  UNL1        0.2187
     22 C           6.9230   42.6538    9.0609 C.3     1  UNL1        0.0884
     23 C           7.1776   41.6961    7.9301 C.ar    1  UNL1       -0.0148
     24 C           6.0867   40.8779    7.6984 C.ar    1  UNL1       -0.0038
     25 C           6.0846   39.9181    6.6874 C.ar    1  UNL1       -0.0003
     26 C           7.2358   39.7978    5.8930 C.ar    1  UNL1       -0.0000
     27 C           8.3493   40.6304    6.1184 C.ar    1  UNL1       -0.0003
     28 C           8.3257   41.5918    7.1425 C.ar    1  UNL1       -0.0038
     29 C           5.0515   41.2268    8.6414 C.ar    1  UNL1       -0.0038
     30 C           5.5213   42.2540    9.4397 C.ar    1  UNL1       -0.0148
     31 C           4.7109   42.8125   10.4304 C.ar    1  UNL1       -0.0038
     32 C           3.4158   42.2968   10.6051 C.ar    1  UNL1       -0.0003
     33 C           2.9489   41.2458    9.7921 C.ar    1  UNL1       -0.0000
     34 C           3.7701   40.6997    8.7931 C.ar    1  UNL1       -0.0003
@<TRIPOS>BOND
     1    15    14    1
     2    15    10    1
     3    15    16    1
     4     5    12   ar
     5     6     7   ar
     6     6    13   ar
     7     7     2    1
     8     8    11   ar
     9     1    20    1
    10    21    20    1
    11    21    22    1
    12    22    23    1
    13    22    30    1
    14    23    24   ar
    15    24    29    1
    16    25    26   ar
    17    27    28   ar
    18    30    31   ar
    19    32    33   ar
    20    34    29   ar
    21     9    10   ar
    22    16    17    1
    23    10     5   ar
    24     2     1   am
    25     5     6   ar
    26     7    11   ar
    27     8    12   ar
    28     1     3    2
    29    24    25   ar
    30    26    27   ar
    31    28    23   ar
    32    29    30   ar
    33    31    32   ar
    34    33    34   ar
    35     9    13   ar
    36    16    18    2
    37     2     4    1
    38    17    19    1
@<TRIPOS>MOLECULE
Molport-046-654-148 MCULE-3101607215 PubChem-165827910
 34 38 0 0 0
SMALL
GASTEIGER

@<TRIPOS>ATOM
      1 C          10.0628   42.0300    9.4991 C.2     1  UNL1        0.4065
      2 N          10.4497   40.7207    9.9294 N.am    1  UNL1       -0.2337
      3 O          10.9016   42.8080    8.9673 O.2     1  UNL1       -0.2261
      4 H           9.7515   40.1539   10.3301 H       1  UNL1        0.1597
      5 C          13.2006   38.2788    9.7061 C.ar    1  UNL1        0.1677
      6 C          11.9543   38.7895    9.8023 C.ar    1  UNL1        0.1488
      7 C          11.7662   40.1645    9.8269 C.ar    1  UNL1        0.1592
      8 C          14.1375   40.4119    9.6525 C.ar    1  UNL1        0.2015
      9 C          11.8055   36.6711    9.7931 C.ar    1  UNL1        0.1802
     10 N          13.1343   36.9447    9.6992 N.ar    1  UNL1       -0.2857
     11 N          12.8808   40.9548    9.7505 N.ar    1  UNL1       -0.2071
     12 N          14.3081   39.0555    9.6292 N.ar    1  UNL1       -0.2048
     13 N          11.0436   37.7998    9.8599 N.ar    1  UNL1       -0.2194
     14 C          13.7445   34.5726    9.5369 C.3     1  UNL1        0.0367
     15 C          14.2473   36.0055    9.6009 C.3     1  UNL1        0.1868
     16 C          15.1214   36.3255    8.4307 C.2     1  UNL1        0.3347
     17 O          14.6451   36.1198    7.1434 O.3     1  UNL1       -0.4789
     18 O          16.2866   36.7727    8.6018 O.2     1  UNL1       -0.2482
     19 H          13.7790   35.7873    7.0118 H       1  UNL1        0.2951
     20 O           8.7378   42.4341    9.6752 O.3     1  UNL1       -0.4337
     21 C           7.7873   41.6494   10.3865 C.3     1  UNL1        0.2187
     22 C           6.5596   41.3769    9.5230 C.3     1  UNL1        0.0884
     23 C           5.3190   41.3857   10.3724 C.ar    1  UNL1       -0.0148
     24 C           4.4553   42.4015   10.0044 C.ar    1  UNL1       -0.0038
     25 C           3.2313   42.5976   10.6420 C.ar    1  UNL1       -0.0003
     26 C           2.8866   41.7244   11.6859 C.ar    1  UNL1       -0.0000
     27 C           3.7576   40.6840   12.0637 C.ar    1  UNL1       -0.0003
     28 C           4.9849   40.5057   11.4037 C.ar    1  UNL1       -0.0038
     29 C           5.0504   43.1255    8.9071 C.ar    1  UNL1       -0.0038
     30 C           6.2718   42.5448    8.6168 C.ar    1  UNL1       -0.0148
     31 C           7.0594   43.0302    7.5709 C.ar    1  UNL1       -0.0038
     32 C           6.5886   44.1287    6.8324 C.ar    1  UNL1       -0.0003
     33 C           5.3469   44.7179    7.1402 C.ar    1  UNL1       -0.0000
     34 C           4.5601   44.2142    8.1880 C.ar    1  UNL1       -0.0003
@<TRIPOS>BOND
     1    15    14    1
     2    15    10    1
     3    15    16    1
     4     5    12   ar
     5     6     7   ar
     6     6    13   ar
     7     7     2    1
     8     8    11   ar
     9     1    20    1
    10    21    20    1
    11    21    22    1
    12    22    23    1
    13    22    30    1
    14    23    24   ar
    15    24    29    1
    16    25    26   ar
    17    27    28   ar
    18    30    31   ar
    19    32    33   ar
    20    34    29   ar
    21     9    10   ar
    22    16    17    1
    23    10     5   ar
    24     2     1   am
    25     5     6   ar
    26     7    11   ar
    27     8    12   ar
    28     1     3    2
    29    24    25   ar
    30    26    27   ar
    31    28    23   ar
    32    29    30   ar
    33    31    32   ar
    34    33    34   ar
    35     9    13   ar
    36    16    18    2
    37     2     4    1
    38    17    19    1
@<TRIPOS>MOLECULE
Molport-046-654-148 MCULE-3101607215 PubChem-165827910
 34 38 0 0 0
SMALL
GASTEIGER

@<TRIPOS>ATOM
      1 C          10.4387   41.1067    8.4209 C.2     1  UNL1        0.4065
      2 N           9.7628   42.1131    9.1820 N.am    1  UNL1       -0.2337
      3 O          10.0673   39.9021    8.4711 O.2     1  UNL1       -0.2261
      4 H          10.0907   43.0376    9.0976 H       1  UNL1        0.1597
      5 C           6.3546   41.3841   10.3790 C.ar    1  UNL1        0.1677
      6 C           7.3950   41.5912    9.5436 C.ar    1  UNL1        0.1488
      7 C           8.6497   41.8902   10.0563 C.ar    1  UNL1        0.1592
      8 C           7.7012   41.7470   12.2460 C.ar    1  UNL1        0.2015
      9 C           5.6768   41.1626    8.3715 C.ar    1  UNL1        0.1802
     10 N           5.2589   41.1129    9.6647 N.ar    1  UNL1       -0.2857
     11 N           8.7738   41.9622   11.4173 N.ar    1  UNL1       -0.2071
     12 N           6.4708   41.4530   11.7271 N.ar    1  UNL1       -0.2048
     13 N           7.0030   41.4592    8.2624 N.ar    1  UNL1       -0.2194
     14 C           3.8366   41.0984   11.6653 C.3     1  UNL1        0.0367
     15 C           3.9226   40.8198   10.1737 C.3     1  UNL1        0.1868
     16 C           2.8794   41.5805    9.4196 C.2     1  UNL1        0.3347
     17 O           2.0413   40.9073    8.5416 O.3     1  UNL1       -0.4789
     18 O           2.7586   42.8257    9.5679 O.2     1  UNL1       -0.2482
     19 H           2.1279   39.9812    8.4284 H       1  UNL1        0.2951
     20 O          11.5179   41.4797    7.6171 O.3     1  UNL1       -0.4337
     21 C          12.6877   42.0949    8.1448 C.3     1  UNL1        0.2187
     22 C          13.9327   41.5979    7.4169 C.3     1  UNL1        0.0884
     23 C          14.7149   42.7633    6.8776 C.ar    1  UNL1       -0.0148
     24 C          15.9696   42.8467    7.4537 C.ar    1  UNL1       -0.0038
     25 C          16.8807   43.8404    7.0991 C.ar    1  UNL1       -0.0003
     26 C          16.4902   44.7728    6.1248 C.ar    1  UNL1       -0.0000
     27 C          15.2165   44.6922    5.5291 C.ar    1  UNL1       -0.0003
     28 C          14.3170   43.6796    5.9021 C.ar    1  UNL1       -0.0038
     29 C          16.1059   41.7647    8.3987 C.ar    1  UNL1       -0.0038
     30 C          14.9328   41.0321    8.3904 C.ar    1  UNL1       -0.0148
     31 C          14.7952   39.9004    9.1970 C.ar    1  UNL1       -0.0038
     32 C          15.8692   39.5342   10.0253 C.ar    1  UNL1       -0.0003
     33 C          17.0572   40.2907   10.0322 C.ar    1  UNL1       -0.0000
     34 C          17.1865   41.4206    9.2092 C.ar    1  UNL1       -0.0003
@<TRIPOS>BOND
     1    15    14    1
     2    15    10    1
     3    15    16    1
     4     5    12   ar
     5     6     7   ar
     6     6    13   ar
     7     7     2    1
     8     8    11   ar
     9     1    20    1
    10    21    20    1
    11    21    22    1
    12    22    23    1
    13    22    30    1
    14    23    24   ar
    15    24    29    1
    16    25    26   ar
    17    27    28   ar
    18    30    31   ar
    19    32    33   ar
    20    34    29   ar
    21     9    10   ar
    22    16    17    1
    23    10     5   ar
    24     2     1   am
    25     5     6   ar
    26     7    11   ar
    27     8    12   ar
    28     1     3    2
    29    24    25   ar
    30    26    27   ar
    31    28    23   ar
    32    29    30   ar
    33    31    32   ar
    34    33    34   ar
    35     9    13   ar
    36    16    18    2
    37     2     4    1
    38    17    19    1
@<TRIPOS>MOLECULE
Molport-046-654-148 MCULE-3101607215 PubChem-165827910
 34 38 0 0 0
SMALL
GASTEIGER

@<TRIPOS>ATOM
      1 C           9.3014   41.0707    8.4455 C.2     1  UNL1        0.4065
      2 N          10.4073   40.7384    7.5996 N.am    1  UNL1       -0.2337
      3 O           9.4394   41.1176    9.6987 O.2     1  UNL1       -0.2261
      4 H          10.2435   40.7249    6.6289 H       1  UNL1        0.1597
      5 C          13.2566   38.9253    9.0740 C.ar    1  UNL1        0.1677
      6 C          12.0034   39.2086    8.6587 C.ar    1  UNL1        0.1488
      7 C          11.7323   40.4236    8.0447 C.ar    1  UNL1        0.1592
      8 C          14.0400   40.9853    8.3166 C.ar    1  UNL1        0.2015
      9 C          11.9925   37.2726    9.5314 C.ar    1  UNL1        0.1802
     10 N          13.2764   37.7104    9.6289 N.ar    1  UNL1       -0.2857
     11 N          12.7745   41.2964    7.8866 N.ar    1  UNL1       -0.2071
     12 N          14.2929   39.7845    8.9197 N.ar    1  UNL1       -0.2048
     13 N          11.1743   38.1839    8.9322 N.ar    1  UNL1       -0.2194
     14 C          15.5961   37.0169    9.2247 C.3     1  UNL1        0.0367
     15 C          14.4284   37.0175   10.1975 C.3     1  UNL1        0.1868
     16 C          14.8196   37.6111   11.5129 C.2     1  UNL1        0.3347
     17 O          15.9773   37.1768   12.1433 O.3     1  UNL1       -0.4789
     18 O          14.1059   38.4952   12.0570 O.2     1  UNL1       -0.2482
     19 H          16.5109   36.5194   11.7420 H       1  UNL1        0.2951
     20 O           8.0634   41.3455    7.8609 O.3     1  UNL1       -0.4337
     21 C           6.8304   41.0178    8.4916 C.3     1  UNL1        0.2187
     22 C           6.3975   42.1318    9.4396 C.3     1  UNL1        0.0884
     23 C           5.7029   43.2220    8.6716 C.ar    1  UNL1       -0.0148
     24 C           4.3844   43.3635    9.0651 C.ar    1  UNL1       -0.0038
     25 C           3.5444   44.3228    8.5019 C.ar    1  UNL1       -0.0003
     26 C           4.0758   45.1596    7.5077 C.ar    1  UNL1       -0.0000
     27 C           5.4188   45.0261    7.1047 C.ar    1  UNL1       -0.0003
     28 C           6.2459   44.0527    7.6895 C.ar    1  UNL1       -0.0038
     29 C           4.1154   42.3952   10.1007 C.ar    1  UNL1       -0.0038
     30 C           5.2722   41.6720   10.3285 C.ar    1  UNL1       -0.0148
     31 C           5.3076   40.6769   11.3075 C.ar    1  UNL1       -0.0038
     32 C           4.1386   40.4194   12.0429 C.ar    1  UNL1       -0.0003
     33 C           2.9634   41.1562   11.7988 C.ar    1  UNL1       -0.0000
     34 C           2.9437   42.1608   10.8184 C.ar    1  UNL1       -0.0003
@<TRIPOS>BOND
     1    15    14    1
     2    15    10    1
     3    15    16    1
     4     5    12   ar
     5     6     7   ar
     6     6    13   ar
     7     7     2    1
     8     8    11   ar
     9     1    20    1
    10    21    20    1
    11    21    22    1
    12    22    23    1
    13    22    30    1
    14    23    24   ar
    15    24    29    1
    16    25    26   ar
    17    27    28   ar
    18    30    31   ar
    19    32    33   ar
    20    34    29   ar
    21     9    10   ar
    22    16    17    1
    23    10     5   ar
    24     2     1   am
    25     5     6   ar
    26     7    11   ar
    27     8    12   ar
    28     1     3    2
    29    24    25   ar
    30    26    27   ar
    31    28    23   ar
    32    29    30   ar
    33    31    32   ar
    34    33    34   ar
    35     9    13   ar
    36    16    18    2
    37     2     4    1
    38    17    19    1
@<TRIPOS>MOLECULE
Molport-046-654-148 MCULE-3101607215 PubChem-165827910
 34 38 0 0 0
SMALL
GASTEIGER

@<TRIPOS>ATOM
      1 C          10.2523   41.4305    9.9532 C.2     1  UNL1        0.4065
      2 N          11.1341   40.4569    9.3843 N.am    1  UNL1       -0.2337
      3 O          10.6912   42.5458   10.3471 O.2     1  UNL1       -0.2261
      4 H          10.7350   39.6075    9.0866 H       1  UNL1        0.1597
      5 C          14.3870   41.6032    8.0866 C.ar    1  UNL1        0.1677
      6 C          13.0524   41.4664    8.2396 C.ar    1  UNL1        0.1488
      7 C          12.5478   40.6128    9.2109 C.ar    1  UNL1        0.1592
      8 C          14.8023   40.0913    9.8106 C.ar    1  UNL1        0.2015
      9 C          13.4026   42.8515    6.6685 C.ar    1  UNL1        0.1802
     10 N          14.6342   42.4706    7.1013 N.ar    1  UNL1       -0.2857
     11 N          13.4501   39.9349    9.9849 N.ar    1  UNL1       -0.2071
     12 N          15.2856   40.9358    8.8500 N.ar    1  UNL1       -0.2048
     13 N          12.3958   42.2427    7.3573 N.ar    1  UNL1       -0.2194
     14 C          15.7992   44.0922    5.6734 C.3     1  UNL1        0.0367
     15 C          15.9396   42.9094    6.6174 C.3     1  UNL1        0.1868
     16 C          16.8565   43.2295    7.7543 C.2     1  UNL1        0.3347
     17 O          16.7097   44.4297    8.4357 O.3     1  UNL1       -0.4789
     18 O          17.7641   42.4248    8.0946 O.2     1  UNL1       -0.2482
     19 H          16.0359   45.0310    8.1858 H       1  UNL1        0.2951
     20 O           8.8938   41.1274   10.0642 O.3     1  UNL1       -0.4337
     21 C           7.9132   41.6814    9.1941 C.3     1  UNL1        0.2187
     22 C           6.9700   42.6020    9.9621 C.3     1  UNL1        0.0884
     23 C           6.2741   43.5368    9.0121 C.ar    1  UNL1       -0.0148
     24 C           4.9057   43.3349    9.0076 C.ar    1  UNL1       -0.0038
     25 C           4.0494   44.0961    8.2135 C.ar    1  UNL1       -0.0003
     26 C           4.6165   45.0923    7.4031 C.ar    1  UNL1       -0.0000
     27 C           6.0083   45.3083    7.4054 C.ar    1  UNL1       -0.0003
     28 C           6.8500   44.5292    8.2165 C.ar    1  UNL1       -0.0038
     29 C           4.6026   42.2717    9.9351 C.ar    1  UNL1       -0.0038
     30 C           5.7891   41.8349   10.4959 C.ar    1  UNL1       -0.0148
     31 C           5.7909   40.8219   11.4571 C.ar    1  UNL1       -0.0038
     32 C           4.5629   40.2493   11.8285 C.ar    1  UNL1       -0.0003
     33 C           3.3606   40.6959   11.2465 C.ar    1  UNL1       -0.0000
     34 C           3.3714   41.7219   10.2884 C.ar    1  UNL1       -0.0003
@<TRIPOS>BOND
     1    15    14    1
     2    15    10    1
     3    15    16    1
     4     5    12   ar
     5     6     7   ar
     6     6    13   ar
     7     7     2    1
     8     8    11   ar
     9     1    20    1
    10    21    20    1
    11    21    22    1
    12    22    23    1
    13    22    30    1
    14    23    24   ar
    15    24    29    1
    16    25    26   ar
    17    27    28   ar
    18    30    31   ar
    19    32    33   ar
    20    34    29   ar
    21     9    10   ar
    22    16    17    1
    23    10     5   ar
    24     2     1   am
    25     5     6   ar
    26     7    11   ar
    27     8    12   ar
    28     1     3    2
    29    24    25   ar
    30    26    27   ar
    31    28    23   ar
    32    29    30   ar
    33    31    32   ar
    34    33    34   ar
    35     9    13   ar
    36    16    18    2
    37     2     4    1
    38    17    19    1
@<TRIPOS>MOLECULE
Molport-046-654-148 MCULE-3101607215 PubChem-165827910
 34 38 0 0 0
SMALL
GASTEIGER

@<TRIPOS>ATOM
      1 C          10.7652   41.1425    9.9098 C.2     1  UNL1        0.4065
      2 N          11.6518   40.4037    9.0629 N.am    1  UNL1       -0.2337
      3 O          11.1933   42.0968   10.6153 O.2     1  UNL1       -0.2261
      4 H          11.2610   39.6749    8.5287 H       1  UNL1        0.1597
      5 C          14.8647   41.8374    7.9666 C.ar    1  UNL1        0.1677
      6 C          13.5356   41.6316    8.0865 C.ar    1  UNL1        0.1488
      7 C          13.0594   40.6341    8.9261 C.ar    1  UNL1        0.1592
      8 C          15.3294   40.1185    9.4700 C.ar    1  UNL1        0.2015
      9 C          13.8398   43.2322    6.7244 C.ar    1  UNL1        0.1802
     10 N          15.0831   42.8410    7.1125 N.ar    1  UNL1       -0.2857
     11 N          13.9833   39.8898    9.6081 N.ar    1  UNL1       -0.2071
     12 N          15.7845   41.1048    8.6395 N.ar    1  UNL1       -0.2048
     13 N          12.8538   42.4973    7.3133 N.ar    1  UNL1       -0.2194
     14 C          16.2070   44.7730    6.0977 C.3     1  UNL1        0.0367
     15 C          16.3730   43.3902    6.7061 C.3     1  UNL1        0.1868
     16 C          17.3340   43.4142    7.8515 C.2     1  UNL1        0.3347
     17 O          17.1427   44.3181    8.8873 O.3     1  UNL1       -0.4789
     18 O          18.3179   42.6281    7.8819 O.2     1  UNL1       -0.2482
     19 H          16.4121   44.9045    8.8685 H       1  UNL1        0.2951
     20 O           9.4141   40.7916    9.9420 O.3     1  UNL1       -0.4337
     21 C           8.4500   41.5295   10.6846 C.3     1  UNL1        0.2187
     22 C           7.4661   42.2247    9.7487 C.3     1  UNL1        0.0884
     23 C           7.5529   41.6265    8.3720 C.ar    1  UNL1       -0.0148
     24 C           6.3634   41.0265    7.9999 C.ar    1  UNL1       -0.0038
     25 C           6.2009   40.4162    6.7572 C.ar    1  UNL1       -0.0003
     26 C           7.2916   40.4244    5.8734 C.ar    1  UNL1       -0.0000
     27 C           8.5049   41.0377    6.2418 C.ar    1  UNL1       -0.0003
     28 C           8.6427   41.6483    7.4995 C.ar    1  UNL1       -0.0038
     29 C           5.4218   41.1797    9.0827 C.ar    1  UNL1       -0.0038
     30 C           6.0462   41.8711   10.1051 C.ar    1  UNL1       -0.0148
     31 C           5.3545   42.1868   11.2763 C.ar    1  UNL1       -0.0038
     32 C           4.0171   41.7734   11.3960 C.ar    1  UNL1       -0.0003
     33 C           3.3920   41.0635   10.3525 C.ar    1  UNL1       -0.0000
     34 C           4.0956   40.7609    9.1760 C.ar    1  UNL1       -0.0003
@<TRIPOS>BOND
     1    15    14    1
     2    15    10    1
     3    15    16    1
     4     5    12   ar
     5     6     7   ar
     6     6    13   ar
     7     7     2    1
     8     8    11   ar
     9     1    20    1
    10    21    20    1
    11    21    22    1
    12    22    23    1
    13    22    30    1
    14    23    24   ar
    15    24    29    1
    16    25    26   ar
    17    27    28   ar
    18    30    31   ar
    19    32    33   ar
    20    34    29   ar
    21     9    10   ar
    22    16    17    1
    23    10     5   ar
    24     2     1   am
    25     5     6   ar
    26     7    11   ar
    27     8    12   ar
    28     1     3    2
    29    24    25   ar
    30    26    27   ar
    31    28    23   ar
    32    29    30   ar
    33    31    32   ar
    34    33    34   ar
    35     9    13   ar
    36    16    18    2
    37     2     4    1
    38    17    19    1
@<TRIPOS>MOLECULE
Molport-046-654-148 MCULE-3101607215 PubChem-165827910
 34 38 0 0 0
SMALL
GASTEIGER

@<TRIPOS>ATOM
      1 C          10.5489   42.6097    9.1100 C.2     1  UNL1        0.4065
      2 N          11.3958   42.0631    8.0936 N.am    1  UNL1       -0.2337
      3 O          10.9527   42.7092   10.3011 O.2     1  UNL1       -0.2261
      4 H          11.0311   42.0173    7.1803 H       1  UNL1        0.1597
      5 C          14.2227   39.9838    9.2184 C.ar    1  UNL1        0.1677
      6 C          12.9611   40.4305    9.0390 C.ar    1  UNL1        0.1488
      7 C          12.7290   41.5769    8.2918 C.ar    1  UNL1        0.1592
      8 C          15.0902   41.7402    7.9561 C.ar    1  UNL1        0.2015
      9 C          12.8805   38.6698   10.2236 C.ar    1  UNL1        0.1802
     10 N          14.1993   38.8750    9.9630 N.ar    1  UNL1       -0.2857
     11 N          13.8172   42.2141    7.7603 N.ar    1  UNL1       -0.2071
     12 N          15.3042   40.6093    8.6943 N.ar    1  UNL1       -0.2048
     13 N          12.0830   39.6226    9.6623 N.ar    1  UNL1       -0.2194
     14 C          15.9929   38.6580   11.6248 C.3     1  UNL1        0.0367
     15 C          15.3415   38.0695   10.3841 C.3     1  UNL1        0.1868
     16 C          14.9447   36.6449   10.6047 C.2     1  UNL1        0.3347
     17 O          14.4235   36.2612   11.8326 O.3     1  UNL1       -0.4789
     18 O          15.0851   35.7894    9.6907 O.2     1  UNL1       -0.2482
     19 H          14.3175   36.8944   12.5150 H       1  UNL1        0.2951
     20 O           9.2652   43.0349    8.7620 O.3     1  UNL1       -0.4337
     21 C           8.1617   42.9466    9.6564 C.3     1  UNL1        0.2187
     22 C           7.5952   41.5303    9.6748 C.3     1  UNL1        0.0884
     23 C           6.1384   41.5620   10.0452 C.ar    1  UNL1       -0.0148
     24 C           5.3401   41.0903    9.0188 C.ar    1  UNL1       -0.0038
     25 C           3.9534   41.0121    9.1377 C.ar    1  UNL1       -0.0003
     26 C           3.3728   41.4296   10.3458 C.ar    1  UNL1       -0.0000
     27 C           4.1784   41.9063   11.3983 C.ar    1  UNL1       -0.0003
     28 C           5.5743   41.9732   11.2544 C.ar    1  UNL1       -0.0038
     29 C           6.1937   40.7208    7.9155 C.ar    1  UNL1       -0.0038
     30 C           7.5045   40.9712    8.2794 C.ar    1  UNL1       -0.0148
     31 C           8.5535   40.6787    7.4053 C.ar    1  UNL1       -0.0038
     32 C           8.2445   40.1389    6.1456 C.ar    1  UNL1       -0.0003
     33 C           6.9062   39.8941    5.7813 C.ar    1  UNL1       -0.0000
     34 C           5.8613   40.1835    6.6730 C.ar    1  UNL1       -0.0003
@<TRIPOS>BOND
     1    15    14    1
     2    15    10    1
     3    15    16    1
     4     5    12   ar
     5     6     7   ar
     6     6    13   ar
     7     7     2    1
     8     8    11   ar
     9     1    20    1
    10    21    20    1
    11    21    22    1
    12    22    23    1
    13    22    30    1
    14    23    24   ar
    15    24    29    1
    16    25    26   ar
    17    27    28   ar
    18    30    31   ar
    19    32    33   ar
    20    34    29   ar
    21     9    10   ar
    22    16    17    1
    23    10     5   ar
    24     2     1   am
    25     5     6   ar
    26     7    11   ar
    27     8    12   ar
    28     1     3    2
    29    24    25   ar
    30    26    27   ar
    31    28    23   ar
    32    29    30   ar
    33    31    32   ar
    34    33    34   ar
    35     9    13   ar
    36    16    18    2
    37     2     4    1
    38    17    19    1
