@<TRIPOS>MOLECULE
Molport-047-072-195 PubChem-132766832
 33 36 0 0 0
SMALL
GASTEIGER

@<TRIPOS>ATOM
      1 C           7.4505   41.5901   11.2632 C.ar    1  UNL1        0.1368
      2 C           8.5287   41.2415   10.4504 C.ar    1  UNL1        0.0492
      3 C           9.7291   40.8684   11.0548 C.ar    1  UNL1        0.0644
      4 C           8.7682   41.1963   13.1907 C.ar    1  UNL1        0.1406
      5 C           8.8969   41.1761   14.6711 C.3     1  UNL1        0.0737
      6 N           9.8273   40.8541   12.4123 N.ar    1  UNL1       -0.2348
      7 N           7.5923   41.5609   12.6164 N.ar    1  UNL1       -0.2159
      8 C          10.8980   40.4994   10.2030 C.3     1  UNL1        0.0603
      9 C          12.1887   40.4763   11.0264 C.3     1  UNL1        0.0094
     10 C          13.4361   40.1668   10.1827 C.3     1  UNL1        0.0220
     11 C          13.1570   40.1428    8.6787 C.3     1  UNL1        0.0937
     12 C          11.0312   41.4644    9.0219 C.3     1  UNL1        0.0996
     13 C          12.6278   42.1506    7.2183 C.2     1  UNL1        0.2492
     14 N          12.2973   41.2679    8.3080 N.am    1  UNL1       -0.2757
     15 O          11.7108   42.8101    6.6599 O.2     1  UNL1       -0.2699
     16 C          14.0022   42.3395    6.7169 C.2     1  UNL1        0.0595
     17 C          14.8591   43.2242    7.2152 C.2     1  UNL1        0.0234
     18 C          16.2203   43.3756    6.6821 C.ar    1  UNL1        0.0797
     19 C          16.5681   43.9199    5.4580 C.ar    1  UNL1        0.0412
     20 C          17.9552   43.8275    5.4378 C.ar    1  UNL1        0.1217
     21 C          17.4081   42.3793    8.6426 C.3     1  UNL1        0.1537
     22 N          18.3887   43.2618    6.5836 N.ar    1  UNL1       -0.1676
     23 N          17.3330   42.9929    7.3272 N.ar    1  UNL1       -0.2488
     24 N           6.2142   41.9790   10.6526 N.pl3   1  UNL1       -0.2679
     25 H           5.3883   41.7623   11.1426 H       1  UNL1        0.1565
     26 C           7.8304   42.7290    6.1198 C.3     1  UNL1        0.0522
     27 C           6.8463   43.0209    7.1943 C.ar    1  UNL1        0.0634
     28 C           5.8121   43.9261    6.9646 C.ar    1  UNL1        0.0296
     29 C           4.9083   44.1718    7.9965 C.ar    1  UNL1        0.0634
     30 C           3.7914   45.1307    7.7940 C.3     1  UNL1        0.0522
     31 C           6.0646   42.6532    9.3973 C.ar    1  UNL1        0.2211
     32 N           5.0486   43.5345    9.1877 N.ar    1  UNL1       -0.2179
     33 N           6.9532   42.4028    8.3994 N.ar    1  UNL1       -0.2179
@<TRIPOS>BOND
     1    26    27    1
     2    27    33   ar
     3    28    29   ar
     4    30    29    1
     5    31    32   ar
     6    31    24    1
     7     1     7   ar
     8     2     3   ar
     9     4     6   ar
    10     5     4    1
    11     8     3    1
    12     8     9    1
    13     9    10    1
    14    10    11    1
    15    11    14    1
    16    12    14    1
    17    12     8    1
    18    13    16    1
    19    17    18    1
    20    19    20   ar
    21    21    23    1
    22    24     1    1
    23    14    13   am
    24    23    22   ar
    25    23    18   ar
    26    27    28   ar
    27    29    32   ar
    28    31    33   ar
    29     1     2   ar
    30     3     6   ar
    31     4     7   ar
    32    13    15    2
    33    16    17    2
    34    18    19   ar
    35    20    22   ar
    36    24    25    1
@<TRIPOS>MOLECULE
Molport-047-072-195 PubChem-132766832
 33 36 0 0 0
SMALL
GASTEIGER

@<TRIPOS>ATOM
      1 C          16.1558   41.8349    8.3363 C.ar    1  UNL1        0.1368
      2 C          14.8296   41.4114    8.4169 C.ar    1  UNL1        0.0492
      3 C          13.8743   42.0487    7.6253 C.ar    1  UNL1        0.0644
      4 C          15.5441   43.4651    6.7317 C.ar    1  UNL1        0.1406
      5 C          15.9312   44.5770    5.8247 C.3     1  UNL1        0.0737
      6 N          14.2483   43.0638    6.7992 N.ar    1  UNL1       -0.2348
      7 N          16.4859   42.8533    7.4960 N.ar    1  UNL1       -0.2159
      8 C          12.4478   41.6162    7.7024 C.3     1  UNL1        0.0603
      9 C          11.7125   41.9223    6.3947 C.3     1  UNL1        0.0094
     10 C          10.2197   41.5575    6.4433 C.3     1  UNL1        0.0220
     11 C           9.7421   41.1535    7.8394 C.3     1  UNL1        0.0937
     12 C          11.7436   42.2870    8.8848 C.3     1  UNL1        0.0996
     13 C           9.4629   42.6972    9.8352 C.2     1  UNL1        0.2492
     14 N          10.2945   42.0637    8.8437 N.am    1  UNL1       -0.2757
     15 O           9.9849   43.1075   10.9061 O.2     1  UNL1       -0.2699
     16 C           8.0131   42.9074    9.6622 C.2     1  UNL1        0.0595
     17 C           7.4783   43.6107    8.6699 C.2     1  UNL1        0.0234
     18 C           6.0257   43.7921    8.5386 C.ar    1  UNL1        0.0797
     19 C           5.3828   44.7794    7.8122 C.ar    1  UNL1        0.0412
     20 C           4.0335   44.5127    8.0150 C.ar    1  UNL1        0.1217
     21 C           5.3643   41.8528    9.9698 C.3     1  UNL1        0.1537
     22 N           3.8996   43.4331    8.8135 N.ar    1  UNL1       -0.1676
     23 N           5.1086   43.0065    9.1237 N.ar    1  UNL1       -0.2488
     24 N          17.1442   41.1900    9.1484 N.pl3   1  UNL1       -0.2679
     25 H          18.0225   41.6300    9.2139 H       1  UNL1        0.1565
     26 C          14.2754   38.3046   11.8251 C.3     1  UNL1        0.0522
     27 C          15.5870   38.5611   11.1754 C.ar    1  UNL1        0.0634
     28 C          16.6112   37.6220   11.2790 C.ar    1  UNL1        0.0296
     29 C          17.8259   37.8982   10.6543 C.ar    1  UNL1        0.0634
     30 C          18.9448   36.9243   10.7408 C.3     1  UNL1        0.0522
     31 C          16.9772   39.9662    9.8744 C.ar    1  UNL1        0.2211
     32 N          17.9869   39.0581    9.9662 N.ar    1  UNL1       -0.2179
     33 N          15.7862   39.7098   10.4778 N.ar    1  UNL1       -0.2179
@<TRIPOS>BOND
     1    26    27    1
     2    27    33   ar
     3    28    29   ar
     4    30    29    1
     5    31    32   ar
     6    31    24    1
     7     1     7   ar
     8     2     3   ar
     9     4     6   ar
    10     5     4    1
    11     8     3    1
    12     8     9    1
    13     9    10    1
    14    10    11    1
    15    11    14    1
    16    12    14    1
    17    12     8    1
    18    13    16    1
    19    17    18    1
    20    19    20   ar
    21    21    23    1
    22    24     1    1
    23    14    13   am
    24    23    22   ar
    25    23    18   ar
    26    27    28   ar
    27    29    32   ar
    28    31    33   ar
    29     1     2   ar
    30     3     6   ar
    31     4     7   ar
    32    13    15    2
    33    16    17    2
    34    18    19   ar
    35    20    22   ar
    36    24    25    1
@<TRIPOS>MOLECULE
Molport-047-072-195 PubChem-132766832
 33 36 0 0 0
SMALL
GASTEIGER

@<TRIPOS>ATOM
      1 C          15.5641   41.9536    7.9750 C.ar    1  UNL1        0.1368
      2 C          14.3323   41.2997    7.9789 C.ar    1  UNL1        0.0492
      3 C          13.2931   41.8256    7.2117 C.ar    1  UNL1        0.0644
      4 C          14.7013   43.5828    6.4891 C.ar    1  UNL1        0.1406
      5 C          14.9013   44.8184    5.6880 C.3     1  UNL1        0.0737
      6 N          13.4958   42.9571    6.4828 N.ar    1  UNL1       -0.2348
      7 N          15.7233   43.0819    7.2308 N.ar    1  UNL1       -0.2159
      8 C          11.9643   41.1457    7.2081 C.3     1  UNL1        0.0603
      9 C          11.1938   41.4583    5.9225 C.3     1  UNL1        0.0094
     10 C           9.7881   40.8362    5.8961 C.3     1  UNL1        0.0220
     11 C           9.3813   40.2071    7.2300 C.3     1  UNL1        0.0937
     12 C          11.1467   41.5523    8.4371 C.3     1  UNL1        0.0996
     13 C           8.8243   41.4544    9.3698 C.2     1  UNL1        0.2492
     14 N           9.7597   41.0860    8.3376 N.am    1  UNL1       -0.2757
     15 O           9.2603   41.8315   10.4902 O.2     1  UNL1       -0.2699
     16 C           7.3611   41.4266    9.1846 C.2     1  UNL1        0.0595
     17 C           6.4905   41.8713   10.0843 C.2     1  UNL1        0.0234
     18 C           5.0396   41.8232    9.8543 C.ar    1  UNL1        0.0797
     19 C           4.1760   40.8199   10.2580 C.ar    1  UNL1        0.0412
     20 C           2.9356   41.2470    9.7978 C.ar    1  UNL1        0.1217
     21 C           4.8732   43.9909    8.6212 C.3     1  UNL1        0.1537
     22 N           3.0703   42.4301    9.1627 N.ar    1  UNL1       -0.1676
     23 N           4.3447   42.7683    9.2027 N.ar    1  UNL1       -0.2488
     24 N          16.6370   41.4242    8.7631 N.pl3   1  UNL1       -0.2679
     25 H          17.5005   41.8943    8.7123 H       1  UNL1        0.1565
     26 C          18.8690   37.5439   10.6821 C.3     1  UNL1        0.0522
     27 C          17.6541   38.3899   10.5528 C.ar    1  UNL1        0.0634
     28 C          16.4972   38.0595   11.2557 C.ar    1  UNL1        0.0296
     29 C          15.3793   38.8786   11.1097 C.ar    1  UNL1        0.0634
     30 C          14.1248   38.5618   11.8405 C.3     1  UNL1        0.0522
     31 C          16.5738   40.2764    9.6181 C.ar    1  UNL1        0.2211
     32 N          15.4365   39.9668   10.2990 N.ar    1  UNL1       -0.2179
     33 N          17.6725   39.4870    9.7517 N.ar    1  UNL1       -0.2179
@<TRIPOS>BOND
     1    26    27    1
     2    27    33   ar
     3    28    29   ar
     4    30    29    1
     5    31    32   ar
     6    31    24    1
     7     1     7   ar
     8     2     3   ar
     9     4     6   ar
    10     5     4    1
    11     8     3    1
    12     8     9    1
    13     9    10    1
    14    10    11    1
    15    11    14    1
    16    12    14    1
    17    12     8    1
    18    13    16    1
    19    17    18    1
    20    19    20   ar
    21    21    23    1
    22    24     1    1
    23    14    13   am
    24    23    22   ar
    25    23    18   ar
    26    27    28   ar
    27    29    32   ar
    28    31    33   ar
    29     1     2   ar
    30     3     6   ar
    31     4     7   ar
    32    13    15    2
    33    16    17    2
    34    18    19   ar
    35    20    22   ar
    36    24    25    1
@<TRIPOS>MOLECULE
Molport-047-072-195 PubChem-132766832
 33 36 0 0 0
SMALL
GASTEIGER

@<TRIPOS>ATOM
      1 C          13.5401   38.0807    9.9819 C.ar    1  UNL1        0.1368
      2 C          12.5751   38.7186    9.2028 C.ar    1  UNL1        0.0492
      3 C          11.3188   38.1262    9.0761 C.ar    1  UNL1        0.0644
      4 C          12.0102   36.3382   10.4610 C.ar    1  UNL1        0.1406
      5 C          11.7079   35.0504   11.1383 C.3     1  UNL1        0.0737
      6 N          11.0600   36.9474    9.7055 N.ar    1  UNL1       -0.2348
      7 N          13.2382   36.9036   10.5945 N.ar    1  UNL1       -0.2159
      8 C          10.2743   38.7882    8.2403 C.3     1  UNL1        0.0603
      9 C          10.9082   39.7629    7.2440 C.3     1  UNL1        0.0094
     10 C           9.8707   40.5234    6.4019 C.3     1  UNL1        0.0220
     11 C           8.4313   40.2960    6.8677 C.3     1  UNL1        0.0937
     12 C           9.2539   39.5108    9.1239 C.3     1  UNL1        0.0996
     13 C           7.3892   41.1789    9.0076 C.2     1  UNL1        0.2492
     14 N           8.3589   40.3577    8.3283 N.am    1  UNL1       -0.2757
     15 O           7.0669   40.8985   10.1929 O.2     1  UNL1       -0.2699
     16 C           6.7493   42.3557    8.3899 C.2     1  UNL1        0.0595
     17 C           5.6442   42.9289    8.8541 C.2     1  UNL1        0.0234
     18 C           5.0431   44.1020    8.2039 C.ar    1  UNL1        0.0797
     19 C           5.7077   45.0574    7.4549 C.ar    1  UNL1        0.0412
     20 C           4.7013   45.9386    7.0761 C.ar    1  UNL1        0.1217
     21 C           2.6943   43.6639    8.9376 C.3     1  UNL1        0.1537
     22 N           3.5200   45.5200    7.5764 N.ar    1  UNL1       -0.1676
     23 N           3.7382   44.4106    8.2557 N.ar    1  UNL1       -0.2488
     24 N          14.8352   38.6784   10.1150 N.pl3   1  UNL1       -0.2679
     25 H          14.8650   39.6099   10.4323 H       1  UNL1        0.1565
     26 C          19.6507   38.5079   10.8245 C.3     1  UNL1        0.0522
     27 C          18.4312   37.9640   10.1723 C.ar    1  UNL1        0.0634
     28 C          18.5290   36.8704    9.3142 C.ar    1  UNL1        0.0296
     29 C          17.3626   36.3884    8.7234 C.ar    1  UNL1        0.0634
     30 C          17.4224   35.2248    7.8011 C.3     1  UNL1        0.0522
     31 C          16.0913   38.0506    9.8307 C.ar    1  UNL1        0.2211
     32 N          16.1708   36.9825    8.9907 N.ar    1  UNL1       -0.2179
     33 N          17.2207   38.5311   10.4152 N.ar    1  UNL1       -0.2179
@<TRIPOS>BOND
     1    26    27    1
     2    27    33   ar
     3    28    29   ar
     4    30    29    1
     5    31    32   ar
     6    31    24    1
     7     1     7   ar
     8     2     3   ar
     9     4     6   ar
    10     5     4    1
    11     8     3    1
    12     8     9    1
    13     9    10    1
    14    10    11    1
    15    11    14    1
    16    12    14    1
    17    12     8    1
    18    13    16    1
    19    17    18    1
    20    19    20   ar
    21    21    23    1
    22    24     1    1
    23    14    13   am
    24    23    22   ar
    25    23    18   ar
    26    27    28   ar
    27    29    32   ar
    28    31    33   ar
    29     1     2   ar
    30     3     6   ar
    31     4     7   ar
    32    13    15    2
    33    16    17    2
    34    18    19   ar
    35    20    22   ar
    36    24    25    1
@<TRIPOS>MOLECULE
Molport-047-072-195 PubChem-132766832
 33 36 0 0 0
SMALL
GASTEIGER

@<TRIPOS>ATOM
      1 C          14.7519   39.3674    9.1521 C.ar    1  UNL1        0.1368
      2 C          13.4462   39.7661    8.8675 C.ar    1  UNL1        0.0492
      3 C          12.4557   38.7895    8.7652 C.ar    1  UNL1        0.0644
      4 C          14.0539   37.1058    9.2166 C.ar    1  UNL1        0.1406
      5 C          14.3847   35.6688    9.4017 C.3     1  UNL1        0.0737
      6 N          12.7775   37.4785    8.9399 N.ar    1  UNL1       -0.2348
      7 N          15.0293   38.0457    9.3203 N.ar    1  UNL1       -0.2159
      8 C          11.0532   39.1940    8.4533 C.3     1  UNL1        0.0603
      9 C          10.9650   39.8350    7.0656 C.3     1  UNL1        0.0094
     10 C           9.5517   40.3320    6.7201 C.3     1  UNL1        0.0220
     11 C           8.5819   40.2625    7.9013 C.3     1  UNL1        0.0937
     12 C          10.5169   40.1501    9.5220 C.3     1  UNL1        0.0996
     13 C           8.6285   41.7333    9.9699 C.2     1  UNL1        0.2492
     14 N           9.2367   40.7419    9.1195 N.am    1  UNL1       -0.2757
     15 O           8.9802   41.8085   11.1774 O.2     1  UNL1       -0.2699
     16 C           7.6088   42.6894    9.4987 C.2     1  UNL1        0.0595
     17 C           6.3561   42.3554    9.2080 C.2     1  UNL1        0.0234
     18 C           5.3744   43.3449    8.7418 C.ar    1  UNL1        0.0797
     19 C           5.5992   44.3574    7.8254 C.ar    1  UNL1        0.0412
     20 C           4.3703   45.0016    7.7372 C.ar    1  UNL1        0.1217
     21 C           3.4574   42.5147   10.1141 C.3     1  UNL1        0.1537
     22 N           3.4825   44.3988    8.5554 N.ar    1  UNL1       -0.1676
     23 N           4.0996   43.4002    9.1570 N.ar    1  UNL1       -0.2488
     24 N          15.7778   40.3621    9.2550 N.pl3   1  UNL1       -0.2679
     25 H          16.4603   40.2271    9.9516 H       1  UNL1        0.1565
     26 C          13.8030   43.3935    5.9944 C.3     1  UNL1        0.0522
     27 C          14.9504   43.0098    6.8572 C.ar    1  UNL1        0.0634
     28 C          16.1082   43.7854    6.8621 C.ar    1  UNL1        0.0296
     29 C          17.1616   43.3939    7.6860 C.ar    1  UNL1        0.0634
     30 C          18.4146   44.1920    7.7207 C.3     1  UNL1        0.0522
     31 C          15.9058   41.5344    8.4415 C.ar    1  UNL1        0.2211
     32 N          17.0429   42.2824    8.4575 N.ar    1  UNL1       -0.2179
     33 N          14.8694   41.9048    7.6434 N.ar    1  UNL1       -0.2179
@<TRIPOS>BOND
     1    26    27    1
     2    27    33   ar
     3    28    29   ar
     4    30    29    1
     5    31    32   ar
     6    31    24    1
     7     1     7   ar
     8     2     3   ar
     9     4     6   ar
    10     5     4    1
    11     8     3    1
    12     8     9    1
    13     9    10    1
    14    10    11    1
    15    11    14    1
    16    12    14    1
    17    12     8    1
    18    13    16    1
    19    17    18    1
    20    19    20   ar
    21    21    23    1
    22    24     1    1
    23    14    13   am
    24    23    22   ar
    25    23    18   ar
    26    27    28   ar
    27    29    32   ar
    28    31    33   ar
    29     1     2   ar
    30     3     6   ar
    31     4     7   ar
    32    13    15    2
    33    16    17    2
    34    18    19   ar
    35    20    22   ar
    36    24    25    1
@<TRIPOS>MOLECULE
Molport-047-072-195 PubChem-132766832
 33 36 0 0 0
SMALL
GASTEIGER

@<TRIPOS>ATOM
      1 C          14.9143   39.9161    9.7298 C.ar    1  UNL1        0.1368
      2 C          13.7575   40.6948    9.7095 C.ar    1  UNL1        0.0492
      3 C          12.5864   40.1676   10.2536 C.ar    1  UNL1        0.0644
      4 C          13.7266   38.1687   10.7987 C.ar    1  UNL1        0.1406
      5 C          13.7108   36.8024   11.3832 C.3     1  UNL1        0.0737
      6 N          12.5919   38.9151   10.7863 N.ar    1  UNL1       -0.2348
      7 N          14.8752   38.6690   10.2733 N.ar    1  UNL1       -0.2159
      8 C          11.3353   40.9813   10.2347 C.3     1  UNL1        0.0603
      9 C          10.5367   40.7861   11.5264 C.3     1  UNL1        0.0094
     10 C           9.2030   41.5509   11.5318 C.3     1  UNL1        0.0220
     11 C           8.8634   42.1815   10.1800 C.3     1  UNL1        0.0937
     12 C          10.4797   40.6277    9.0153 C.3     1  UNL1        0.0996
     13 C           8.1798   40.9397    8.0740 C.2     1  UNL1        0.2492
     14 N           9.1485   41.2378    9.0981 N.am    1  UNL1       -0.2757
     15 O           8.5742   40.4886    6.9656 O.2     1  UNL1       -0.2699
     16 C           6.7274   41.1241    8.2543 C.2     1  UNL1        0.0595
     17 C           6.1562   41.4275    9.4149 C.2     1  UNL1        0.0234
     18 C           4.7027   41.6023    9.5454 C.ar    1  UNL1        0.0797
     19 C           3.8079   40.6844   10.0674 C.ar    1  UNL1        0.0412
     20 C           2.5786   41.3252    9.9619 C.ar    1  UNL1        0.1217
     21 C           4.6017   43.9007    8.5686 C.3     1  UNL1        0.1537
     22 N           2.7487   42.5448    9.4100 N.ar    1  UNL1       -0.1676
     23 N           4.0348   42.7013    9.1624 N.ar    1  UNL1       -0.2488
     24 N          16.1215   40.4463    9.1696 N.pl3   1  UNL1       -0.2679
     25 H          16.9510   39.9461    9.3456 H       1  UNL1        0.1565
     26 C          14.1047   43.5329    5.9874 C.3     1  UNL1        0.0522
     27 C          15.2617   43.1369    6.8316 C.ar    1  UNL1        0.0634
     28 C          16.4167   43.9165    6.8406 C.ar    1  UNL1        0.0296
     29 C          17.4794   43.5131    7.6467 C.ar    1  UNL1        0.0634
     30 C          18.7298   44.3150    7.6848 C.3     1  UNL1        0.0522
     31 C          16.2375   41.6346    8.3778 C.ar    1  UNL1        0.2211
     32 N          17.3721   42.3864    8.3975 N.ar    1  UNL1       -0.2179
     33 N          15.1922   42.0165    7.5970 N.ar    1  UNL1       -0.2179
@<TRIPOS>BOND
     1    26    27    1
     2    27    33   ar
     3    28    29   ar
     4    30    29    1
     5    31    32   ar
     6    31    24    1
     7     1     7   ar
     8     2     3   ar
     9     4     6   ar
    10     5     4    1
    11     8     3    1
    12     8     9    1
    13     9    10    1
    14    10    11    1
    15    11    14    1
    16    12    14    1
    17    12     8    1
    18    13    16    1
    19    17    18    1
    20    19    20   ar
    21    21    23    1
    22    24     1    1
    23    14    13   am
    24    23    22   ar
    25    23    18   ar
    26    27    28   ar
    27    29    32   ar
    28    31    33   ar
    29     1     2   ar
    30     3     6   ar
    31     4     7   ar
    32    13    15    2
    33    16    17    2
    34    18    19   ar
    35    20    22   ar
    36    24    25    1
@<TRIPOS>MOLECULE
Molport-047-072-195 PubChem-132766832
 33 36 0 0 0
SMALL
GASTEIGER

@<TRIPOS>ATOM
      1 C           7.8013   41.7559   11.2429 C.ar    1  UNL1        0.1368
      2 C           8.9351   41.6027   10.4455 C.ar    1  UNL1        0.0492
      3 C          10.1424   41.2651   11.0568 C.ar    1  UNL1        0.0644
      4 C           9.0804   41.2487   13.1698 C.ar    1  UNL1        0.1406
      5 C           9.1579   41.0616   14.6421 C.3     1  UNL1        0.0737
      6 N          10.1934   41.0960   12.4064 N.ar    1  UNL1       -0.2348
      7 N           7.8971   41.5764   12.5886 N.ar    1  UNL1       -0.2159
      8 C          11.3696   41.1043   10.2226 C.3     1  UNL1        0.0603
      9 C          11.0327   40.4669    8.8718 C.3     1  UNL1        0.0094
     10 C          12.2724   40.2163    7.9978 C.3     1  UNL1        0.0220
     11 C          13.5902   40.4705    8.7322 C.3     1  UNL1        0.0937
     12 C          12.4200   40.2718   10.9626 C.3     1  UNL1        0.0996
     13 C          14.5721   39.0458   10.5898 C.2     1  UNL1        0.2492
     14 N          13.5327   39.9040   10.0806 N.am    1  UNL1       -0.2757
     15 O          14.7196   38.9296   11.8357 O.2     1  UNL1       -0.2699
     16 C          15.4818   38.2731    9.7231 C.2     1  UNL1        0.0595
     17 C          15.3236   36.9840    9.4430 C.2     1  UNL1        0.0234
     18 C          16.2573   36.2559    8.5722 C.ar    1  UNL1        0.0797
     19 C          15.9535   35.6502    7.3654 C.ar    1  UNL1        0.0412
     20 C          17.1657   35.1077    6.9540 C.ar    1  UNL1        0.1217
     21 C          18.2810   36.5555   10.0081 C.3     1  UNL1        0.1537
     22 N          18.1190   35.3816    7.8691 N.ar    1  UNL1       -0.1676
     23 N          17.5593   36.0750    8.8417 N.ar    1  UNL1       -0.2488
     24 N           6.5570   42.1068   10.6256 N.pl3   1  UNL1       -0.2679
     25 H           5.7397   41.9514   11.1519 H       1  UNL1        0.1565
     26 C           4.0780   45.0639    7.6539 C.3     1  UNL1        0.0522
     27 C           5.1865   44.0977    7.8683 C.ar    1  UNL1        0.0634
     28 C           6.0288   43.7581    6.8114 C.ar    1  UNL1        0.0296
     29 C           7.0578   42.8500    7.0527 C.ar    1  UNL1        0.0634
     30 C           7.9781   42.4597    5.9533 C.3     1  UNL1        0.0522
     31 C           6.3881   42.6623    9.3158 C.ar    1  UNL1        0.2211
     32 N           7.2194   42.3214    8.2934 N.ar    1  UNL1       -0.2179
     33 N           5.3804   43.5479    9.0954 N.ar    1  UNL1       -0.2179
@<TRIPOS>BOND
     1    26    27    1
     2    27    33   ar
     3    28    29   ar
     4    30    29    1
     5    31    32   ar
     6    31    24    1
     7     1     7   ar
     8     2     3   ar
     9     4     6   ar
    10     5     4    1
    11     8     3    1
    12     8     9    1
    13     9    10    1
    14    10    11    1
    15    11    14    1
    16    12    14    1
    17    12     8    1
    18    13    16    1
    19    17    18    1
    20    19    20   ar
    21    21    23    1
    22    24     1    1
    23    14    13   am
    24    23    22   ar
    25    23    18   ar
    26    27    28   ar
    27    29    32   ar
    28    31    33   ar
    29     1     2   ar
    30     3     6   ar
    31     4     7   ar
    32    13    15    2
    33    16    17    2
    34    18    19   ar
    35    20    22   ar
    36    24    25    1
@<TRIPOS>MOLECULE
Molport-047-072-195 PubChem-132766832
 33 36 0 0 0
SMALL
GASTEIGER

@<TRIPOS>ATOM
      1 C           7.8041   41.7314   11.2705 C.ar    1  UNL1        0.1368
      2 C           8.9450   41.6039   10.4787 C.ar    1  UNL1        0.0492
      3 C          10.1545   41.2828   11.0947 C.ar    1  UNL1        0.0644
      4 C           9.0807   41.2320   13.2011 C.ar    1  UNL1        0.1406
      5 C           9.1529   41.0352   14.6724 C.3     1  UNL1        0.0737
      6 N          10.2006   41.1044   12.4433 N.ar    1  UNL1       -0.2348
      7 N           7.8952   41.5434   12.6153 N.ar    1  UNL1       -0.2159
      8 C          11.3892   41.1496   10.2666 C.3     1  UNL1        0.0603
      9 C          11.0541   40.6328    8.8648 C.3     1  UNL1        0.0094
     10 C          12.2991   40.4130    7.9900 C.3     1  UNL1        0.0220
     11 C          13.6123   40.5656    8.7599 C.3     1  UNL1        0.0937
     12 C          12.4016   40.2276   10.9515 C.3     1  UNL1        0.0996
     13 C          14.5203   38.9669   10.5103 C.2     1  UNL1        0.2492
     14 N          13.5161   39.8957   10.0577 N.am    1  UNL1       -0.2757
     15 O          14.6445   38.7472   11.7448 O.2     1  UNL1       -0.2699
     16 C          15.4193   38.2368    9.5967 C.2     1  UNL1        0.0595
     17 C          15.4427   36.9137    9.4785 C.2     1  UNL1        0.0234
     18 C          16.3570   36.2304    8.5526 C.ar    1  UNL1        0.0797
     19 C          16.0159   35.6327    7.3518 C.ar    1  UNL1        0.0412
     20 C          17.2242   35.1376    6.8745 C.ar    1  UNL1        0.1217
     21 C          18.4364   36.5771    9.8954 C.3     1  UNL1        0.1537
     22 N          18.2107   35.4300    7.7476 N.ar    1  UNL1       -0.1676
     23 N          17.6758   36.0897    8.7569 N.ar    1  UNL1       -0.2488
     24 N           6.5576   42.0653   10.6484 N.pl3   1  UNL1       -0.2679
     25 H           5.7399   41.8900   11.1680 H       1  UNL1        0.1565
     26 C           8.0250   42.3323    6.0120 C.3     1  UNL1        0.0522
     27 C           7.0963   42.7628    7.0892 C.ar    1  UNL1        0.0634
     28 C           6.0915   43.6884    6.8140 C.ar    1  UNL1        0.0296
     29 C           5.2394   44.0655    7.8501 C.ar    1  UNL1        0.0634
     30 C           4.1554   45.0505    7.6000 C.3     1  UNL1        0.0522
     31 C           6.3867   42.6297    9.3427 C.ar    1  UNL1        0.2211
     32 N           5.4000   43.5324    9.0890 N.ar    1  UNL1       -0.2179
     33 N           7.2249   42.2516    8.3413 N.ar    1  UNL1       -0.2179
@<TRIPOS>BOND
     1    26    27    1
     2    27    33   ar
     3    28    29   ar
     4    30    29    1
     5    31    32   ar
     6    31    24    1
     7     1     7   ar
     8     2     3   ar
     9     4     6   ar
    10     5     4    1
    11     8     3    1
    12     8     9    1
    13     9    10    1
    14    10    11    1
    15    11    14    1
    16    12    14    1
    17    12     8    1
    18    13    16    1
    19    17    18    1
    20    19    20   ar
    21    21    23    1
    22    24     1    1
    23    14    13   am
    24    23    22   ar
    25    23    18   ar
    26    27    28   ar
    27    29    32   ar
    28    31    33   ar
    29     1     2   ar
    30     3     6   ar
    31     4     7   ar
    32    13    15    2
    33    16    17    2
    34    18    19   ar
    35    20    22   ar
    36    24    25    1
@<TRIPOS>MOLECULE
Molport-047-072-195 PubChem-132766832
 33 36 0 0 0
SMALL
GASTEIGER

@<TRIPOS>ATOM
      1 C           5.5615   41.7678    8.6734 C.ar    1  UNL1        0.1368
      2 C           6.8283   41.9301    9.2335 C.ar    1  UNL1        0.0492
      3 C           7.9149   41.3039    8.6233 C.ar    1  UNL1        0.0644
      4 C           6.4819   40.4024    6.9720 C.ar    1  UNL1        0.1406
      5 C           6.2925   39.5744    5.7525 C.3     1  UNL1        0.0737
      6 N           7.7220   40.5511    7.5058 N.ar    1  UNL1       -0.2348
      7 N           5.4140   41.0070    7.5547 N.ar    1  UNL1       -0.2159
      8 C           9.2782   41.4581    9.2113 C.3     1  UNL1        0.0603
      9 C           9.6747   42.9347    9.2923 C.3     1  UNL1        0.0094
     10 C          11.0994   43.1475    9.8295 C.3     1  UNL1        0.0220
     11 C          11.8876   41.8452    9.9824 C.3     1  UNL1        0.0937
     12 C          10.3086   40.6687    8.3994 C.3     1  UNL1        0.0996
     13 C          12.7802   40.4008    8.0952 C.2     1  UNL1        0.2492
     14 N          11.6785   40.9897    8.8133 N.am    1  UNL1       -0.2757
     15 O          12.5810   39.3693    7.3996 O.2     1  UNL1       -0.2699
     16 C          14.1487   40.9509    8.1180 C.2     1  UNL1        0.0595
     17 C          14.5023   42.0863    7.5254 C.2     1  UNL1        0.0234
     18 C          15.8802   42.5951    7.5763 C.ar    1  UNL1        0.0797
     19 C          16.8616   42.2221    8.4781 C.ar    1  UNL1        0.0412
     20 C          17.9615   42.9856    8.1036 C.ar    1  UNL1        0.1217
     21 C          15.6786   44.1618    5.6393 C.3     1  UNL1        0.1537
     22 N          17.6381   43.7582    7.0456 N.ar    1  UNL1       -0.1676
     23 N          16.3793   43.5145    6.7359 N.ar    1  UNL1       -0.2488
     24 N           4.4378   42.4030    9.2949 N.pl3   1  UNL1       -0.2679
     25 H           4.1086   43.2320    8.8782 H       1  UNL1        0.1565
     26 C           3.7823   38.9296   12.6455 C.3     1  UNL1        0.0522
     27 C           3.4252   40.2627   12.0946 C.ar    1  UNL1        0.0634
     28 C           2.4453   41.0338   12.7168 C.ar    1  UNL1        0.0296
     29 C           2.1400   42.2792   12.1713 C.ar    1  UNL1        0.0634
     30 C           1.1006   43.1330   12.8028 C.3     1  UNL1        0.0522
     31 C           3.7473   41.9477   10.4647 C.ar    1  UNL1        0.2211
     32 N           2.7927   42.7126   11.0618 N.ar    1  UNL1       -0.2179
     33 N           4.0564   40.7310   10.9864 N.ar    1  UNL1       -0.2179
@<TRIPOS>BOND
     1    26    27    1
     2    27    33   ar
     3    28    29   ar
     4    30    29    1
     5    31    32   ar
     6    31    24    1
     7     1     7   ar
     8     2     3   ar
     9     4     6   ar
    10     5     4    1
    11     8     3    1
    12     8     9    1
    13     9    10    1
    14    10    11    1
    15    11    14    1
    16    12    14    1
    17    12     8    1
    18    13    16    1
    19    17    18    1
    20    19    20   ar
    21    21    23    1
    22    24     1    1
    23    14    13   am
    24    23    22   ar
    25    23    18   ar
    26    27    28   ar
    27    29    32   ar
    28    31    33   ar
    29     1     2   ar
    30     3     6   ar
    31     4     7   ar
    32    13    15    2
    33    16    17    2
    34    18    19   ar
    35    20    22   ar
    36    24    25    1
@<TRIPOS>MOLECULE
Molport-047-072-195 PubChem-132766832
 33 36 0 0 0
SMALL
GASTEIGER

@<TRIPOS>ATOM
      1 C           7.1847   40.8156    9.0582 C.ar    1  UNL1        0.1368
      2 C           8.5688   40.6540    9.1149 C.ar    1  UNL1        0.0492
      3 C           9.2236   40.1017    8.0143 C.ar    1  UNL1        0.0644
      4 C           7.1604   39.8949    6.8769 C.ar    1  UNL1        0.1406
      5 C           6.3976   39.4818    5.6702 C.3     1  UNL1        0.0737
      6 N           8.5082   39.7312    6.9172 N.ar    1  UNL1       -0.2348
      7 N           6.5089   40.4323    7.9408 N.ar    1  UNL1       -0.2159
      8 C          10.7036   39.9126    8.0575 C.3     1  UNL1        0.0603
      9 C          11.2174   39.9493    9.4993 C.3     1  UNL1        0.0094
     10 C          12.7468   39.8262    9.5973 C.3     1  UNL1        0.0220
     11 C          13.4459   39.8916    8.2381 C.3     1  UNL1        0.0937
     12 C          11.4083   40.9740    7.2085 C.3     1  UNL1        0.0996
     13 C          13.6735   41.9463    6.7647 C.2     1  UNL1        0.2492
     14 N          12.8595   40.9547    7.4207 N.am    1  UNL1       -0.2757
     15 O          13.2134   42.5563    5.7629 O.2     1  UNL1       -0.2699
     16 C          15.0329   42.3034    7.2121 C.2     1  UNL1        0.0595
     17 C          15.5645   43.5137    7.0781 C.2     1  UNL1        0.0234
     18 C          16.9250   43.8224    7.5406 C.ar    1  UNL1        0.0797
     19 C          17.3417   43.9292    8.8561 C.ar    1  UNL1        0.0412
     20 C          18.6942   44.2335    8.7502 C.ar    1  UNL1        0.1217
     21 C          17.9577   44.0305    5.2740 C.3     1  UNL1        0.1537
     22 N          19.0434   44.3003    7.4485 N.ar    1  UNL1       -0.1676
     23 N          17.9676   44.0507    6.7273 N.ar    1  UNL1       -0.2488
     24 N           6.5017   41.3779   10.1850 N.pl3   1  UNL1       -0.2679
     25 H           6.9540   41.3136   11.0571 H       1  UNL1        0.1565
     26 C           3.5081   44.6001    8.0930 C.3     1  UNL1        0.0522
     27 C           3.7657   43.5895    9.1515 C.ar    1  UNL1        0.0634
     28 C           2.7760   43.2918   10.0862 C.ar    1  UNL1        0.0296
     29 C           3.0550   42.3371   11.0620 C.ar    1  UNL1        0.0634
     30 C           2.0281   41.9907   12.0786 C.3     1  UNL1        0.0522
     31 C           5.2236   42.0249   10.1645 C.ar    1  UNL1        0.2211
     32 N           4.2664   41.7231   11.0840 N.ar    1  UNL1       -0.2179
     33 N           4.9651   42.9535    9.2059 N.ar    1  UNL1       -0.2179
@<TRIPOS>BOND
     1    26    27    1
     2    27    33   ar
     3    28    29   ar
     4    30    29    1
     5    31    32   ar
     6    31    24    1
     7     1     7   ar
     8     2     3   ar
     9     4     6   ar
    10     5     4    1
    11     8     3    1
    12     8     9    1
    13     9    10    1
    14    10    11    1
    15    11    14    1
    16    12    14    1
    17    12     8    1
    18    13    16    1
    19    17    18    1
    20    19    20   ar
    21    21    23    1
    22    24     1    1
    23    14    13   am
    24    23    22   ar
    25    23    18   ar
    26    27    28   ar
    27    29    32   ar
    28    31    33   ar
    29     1     2   ar
    30     3     6   ar
    31     4     7   ar
    32    13    15    2
    33    16    17    2
    34    18    19   ar
    35    20    22   ar
    36    24    25    1
