@<TRIPOS>MOLECULE
MolPort-016-718-227 19714870 MCULE-5279797870 PubChem-46975114 ZINC000019714870
 28 31 0 0 0
SMALL
GASTEIGER

@<TRIPOS>ATOM
      1 C          11.2957   41.9948    8.5442 C.2     1  UNL1        0.2509
      2 O          11.9896   41.7105    9.5581 O.2     1  UNL1       -0.2698
      3 N          11.9172   42.4859    7.3480 N.am    1  UNL1       -0.2606
      4 H          11.3247   42.6592    6.5810 H       1  UNL1        0.1571
      5 C          16.6922   42.1099    8.1338 C.ar    1  UNL1        0.1566
      6 C          17.9141   42.6098    7.6358 C.ar    1  UNL1        0.0385
      7 C          17.9341   43.5280    6.5689 C.ar    1  UNL1        0.0037
      8 C          16.7365   43.9619    5.9814 C.ar    1  UNL1        0.0083
      9 C          15.5428   43.4554    6.4866 C.ar    1  UNL1        0.0527
     10 C          13.3122   42.7498    7.1560 C.ar    1  UNL1        0.1659
     11 C          15.5066   42.5509    7.5380 C.ar    1  UNL1        0.1230
     12 S          13.9767   43.7894    5.9887 S.2     1  UNL1       -0.0513
     13 N          14.2633   42.1541    7.9146 N.ar    1  UNL1       -0.2208
     14 O          16.6429   41.1891    9.1880 O.3     1  UNL1       -0.4739
     15 C          15.9047   39.3066   10.5091 C.3     1  UNL1        0.0512
     16 C          15.6160   40.2124    9.3257 C.3     1  UNL1        0.2056
     17 C           9.8334   41.8174    8.5864 C.ar    1  UNL1        0.0537
     18 C           9.1110   41.6073    7.4025 C.ar    1  UNL1        0.0043
     19 C           7.7236   41.4426    7.4402 C.ar    1  UNL1       -0.0022
     20 C           7.0459   41.4920    8.6621 C.ar    1  UNL1        0.0022
     21 C           7.7598   41.6931    9.8476 C.ar    1  UNL1       -0.0022
     22 C           9.1474   41.8581    9.8095 C.ar    1  UNL1        0.0043
     23 C           5.5695   41.2916    8.7057 C.3     1  UNL1        0.1573
     24 C           5.3523   43.7403    8.2331 C.ar    1  UNL1        0.2218
     25 N           4.8884   42.5758    8.7128 N.ar    1  UNL1       -0.2062
     26 N           4.3910   44.6741    8.3846 N.ar    1  UNL1       -0.1048
     27 N           3.3608   44.0541    8.9452 N.ar    1  UNL1       -0.0225
     28 N           3.6578   42.7803    9.1407 N.ar    1  UNL1       -0.0425
@<TRIPOS>BOND
     1    15    16    1
     2    16    14    1
     3     5    14    1
     4     6     7   ar
     5     8     9   ar
     6     9    12   ar
     7    10    12   ar
     8    10     3    1
     9     1    17    1
    10    18    19   ar
    11    20    21   ar
    12    23    20    1
    13    23    25    1
    14    22    17   ar
    15    11    13   ar
    16    11     5   ar
    17     3     1   am
    18    25    24   ar
    19    25    28   ar
    20    26    27   ar
    21     5     6   ar
    22     7     8   ar
    23    10    13   ar
    24     1     2    2
    25    17    18   ar
    26    19    20   ar
    27    24    26   ar
    28    21    22   ar
    29    11     9   ar
    30    27    28   ar
    31     3     4    1
@<TRIPOS>MOLECULE
MolPort-016-718-227 19714870 MCULE-5279797870 PubChem-46975114 ZINC000019714870
 28 31 0 0 0
SMALL
GASTEIGER

@<TRIPOS>ATOM
      1 C           7.4230   42.2899    9.7964 C.2     1  UNL1        0.2509
      2 O           7.8820   43.4639    9.7567 O.2     1  UNL1       -0.2698
      3 N           8.2720   41.1643    9.5308 N.am    1  UNL1       -0.2606
      4 H           7.8616   40.2728    9.6087 H       1  UNL1        0.1571
      5 C          13.0473   40.4257    9.9899 C.ar    1  UNL1        0.1566
      6 C          14.2490   40.6400    9.2822 C.ar    1  UNL1        0.0385
      7 C          14.2387   41.2614    8.0191 C.ar    1  UNL1        0.0037
      8 C          13.0304   41.6783    7.4413 C.ar    1  UNL1        0.0083
      9 C          11.8567   41.4560    8.1553 C.ar    1  UNL1        0.0527
     10 C           9.6562   41.2055    9.1636 C.ar    1  UNL1        0.1659
     11 C          11.8506   40.8460    9.4014 C.ar    1  UNL1        0.1230
     12 S          10.2840   41.8426    7.7198 S.2     1  UNL1       -0.0513
     13 N          10.6241   40.7038    9.9678 N.ar    1  UNL1       -0.2208
     14 O          13.0270   39.8022   11.2439 O.3     1  UNL1       -0.4739
     15 C          13.8298   37.5244   11.2784 C.3     1  UNL1        0.0512
     16 C          14.0727   38.9580   11.7144 C.3     1  UNL1        0.2056
     17 C           6.0026   42.0714   10.1224 C.ar    1  UNL1        0.0537
     18 C           5.0030   42.7901    9.4502 C.ar    1  UNL1        0.0043
     19 C           3.6555   42.5869    9.7607 C.ar    1  UNL1       -0.0022
     20 C           3.2963   41.6667   10.7502 C.ar    1  UNL1        0.0022
     21 C           4.2865   40.9405   11.4193 C.ar    1  UNL1       -0.0022
     22 C           5.6341   41.1442   11.1087 C.ar    1  UNL1        0.0043
     23 C           1.8584   41.4314   11.0645 C.3     1  UNL1        0.1573
     24 C           2.2477   42.9652   13.0042 C.ar    1  UNL1        0.2218
     25 N           1.4515   42.2482   12.1960 N.ar    1  UNL1       -0.2062
     26 N           1.4714   43.6206   13.8913 N.ar    1  UNL1       -0.1048
     27 N           0.2198   43.2943   13.5966 N.ar    1  UNL1       -0.0225
     28 N           0.2044   42.4660   12.5657 N.ar    1  UNL1       -0.0425
@<TRIPOS>BOND
     1    15    16    1
     2    16    14    1
     3     5    14    1
     4     6     7   ar
     5     8     9   ar
     6     9    12   ar
     7    10    12   ar
     8    10     3    1
     9     1    17    1
    10    18    19   ar
    11    20    21   ar
    12    23    20    1
    13    23    25    1
    14    22    17   ar
    15    11    13   ar
    16    11     5   ar
    17     3     1   am
    18    25    24   ar
    19    25    28   ar
    20    26    27   ar
    21     5     6   ar
    22     7     8   ar
    23    10    13   ar
    24     1     2    2
    25    17    18   ar
    26    19    20   ar
    27    24    26   ar
    28    21    22   ar
    29    11     9   ar
    30    27    28   ar
    31     3     4    1
@<TRIPOS>MOLECULE
MolPort-016-718-227 19714870 MCULE-5279797870 PubChem-46975114 ZINC000019714870
 28 31 0 0 0
SMALL
GASTEIGER

@<TRIPOS>ATOM
      1 C          10.3133   41.8000    9.2906 C.2     1  UNL1        0.2509
      2 O          10.8229   42.9195    9.5686 O.2     1  UNL1       -0.2698
      3 N          11.1407   40.6377    9.1399 N.am    1  UNL1       -0.2606
      4 H          10.6798   39.7878    8.9545 H       1  UNL1        0.1571
      5 C          15.4919   38.7980   10.2547 C.ar    1  UNL1        0.1566
      6 C          16.8623   39.1148   10.1429 C.ar    1  UNL1        0.0385
      7 C          17.2753   40.3194    9.5428 C.ar    1  UNL1        0.0037
      8 C          16.3288   41.2266    9.0441 C.ar    1  UNL1        0.0083
      9 C          14.9827   40.8941    9.1630 C.ar    1  UNL1        0.0527
     10 C          12.5696   40.5880    9.2319 C.ar    1  UNL1        0.1659
     11 C          14.5600   39.7116    9.7528 C.ar    1  UNL1        0.1230
     12 S          13.6450   41.7734    8.6634 S.2     1  UNL1       -0.0513
     13 N          13.2135   39.5365    9.7929 N.ar    1  UNL1       -0.2208
     14 O          15.0529   37.6032   10.8389 O.3     1  UNL1       -0.4739
     15 C          13.3691   35.9462   10.3357 C.3     1  UNL1        0.0512
     16 C          14.7913   36.4183   10.0938 C.3     1  UNL1        0.2056
     17 C           8.8539   41.6831    9.1227 C.ar    1  UNL1        0.0537
     18 C           7.9847   42.3644    9.9875 C.ar    1  UNL1        0.0043
     19 C           6.6003   42.2517    9.8321 C.ar    1  UNL1       -0.0022
     20 C           6.0730   41.4521    8.8136 C.ar    1  UNL1        0.0022
     21 C           6.9329   40.7760    7.9424 C.ar    1  UNL1       -0.0022
     22 C           8.3176   40.8886    8.0982 C.ar    1  UNL1        0.0043
     23 C           4.5971   41.3512    8.6318 C.3     1  UNL1        0.1573
     24 C           4.1206   40.8148   11.0301 C.ar    1  UNL1        0.2218
     25 N           3.9211   41.5225    9.9073 N.ar    1  UNL1       -0.2062
     26 N           3.3341   41.3265   11.9989 N.ar    1  UNL1       -0.1048
     27 N           2.6805   42.3397   11.4454 N.ar    1  UNL1       -0.0225
     28 N           3.0383   42.4640   10.1783 N.ar    1  UNL1       -0.0425
@<TRIPOS>BOND
     1    15    16    1
     2    16    14    1
     3     5    14    1
     4     6     7   ar
     5     8     9   ar
     6     9    12   ar
     7    10    12   ar
     8    10     3    1
     9     1    17    1
    10    18    19   ar
    11    20    21   ar
    12    23    20    1
    13    23    25    1
    14    22    17   ar
    15    11    13   ar
    16    11     5   ar
    17     3     1   am
    18    25    24   ar
    19    25    28   ar
    20    26    27   ar
    21     5     6   ar
    22     7     8   ar
    23    10    13   ar
    24     1     2    2
    25    17    18   ar
    26    19    20   ar
    27    24    26   ar
    28    21    22   ar
    29    11     9   ar
    30    27    28   ar
    31     3     4    1
@<TRIPOS>MOLECULE
MolPort-016-718-227 19714870 MCULE-5279797870 PubChem-46975114 ZINC000019714870
 28 31 0 0 0
SMALL
GASTEIGER

@<TRIPOS>ATOM
      1 C          10.7078   41.3754   10.0838 C.2     1  UNL1        0.2509
      2 O          11.3754   42.4294    9.9004 O.2     1  UNL1       -0.2698
      3 N          11.3659   40.1374   10.3883 N.am    1  UNL1       -0.2606
      4 H          10.7875   39.3577   10.5518 H       1  UNL1        0.1571
      5 C          16.0618   40.7288    9.3117 C.ar    1  UNL1        0.1566
      6 C          17.3312   40.2575    9.7083 C.ar    1  UNL1        0.0385
      7 C          17.4549   39.2994   10.7323 C.ar    1  UNL1        0.0037
      8 C          16.3153   38.7966   11.3773 C.ar    1  UNL1        0.0083
      9 C          15.0733   39.2760   10.9721 C.ar    1  UNL1        0.0527
     10 C          12.7792   39.9204   10.4784 C.ar    1  UNL1        0.1659
     11 C          14.9350   40.2191    9.9640 C.ar    1  UNL1        0.1230
     12 S          13.5566   38.8621   11.5557 S.2     1  UNL1       -0.0513
     13 N          13.6559   40.5820    9.6854 N.ar    1  UNL1       -0.2208
     14 O          15.9097   41.6878    8.3024 O.3     1  UNL1       -0.4739
     15 C          16.3329   43.7705    7.1546 C.3     1  UNL1        0.0512
     16 C          16.9248   42.6232    7.9531 C.3     1  UNL1        0.2056
     17 C           9.2378   41.4158    9.9887 C.ar    1  UNL1        0.0537
     18 C           8.6033   41.2436    8.7495 C.ar    1  UNL1        0.0043
     19 C           7.2094   41.2854    8.6568 C.ar    1  UNL1       -0.0022
     20 C           6.4380   41.5051    9.8020 C.ar    1  UNL1        0.0022
     21 C           7.0626   41.6697   11.0422 C.ar    1  UNL1       -0.0022
     22 C           8.4568   41.6282   11.1346 C.ar    1  UNL1        0.0043
     23 C           4.9505   41.5249    9.7079 C.3     1  UNL1        0.1573
     24 C           5.2546   43.8150    8.7435 C.ar    1  UNL1        0.2218
     25 N           4.4953   42.8174    9.2227 N.ar    1  UNL1       -0.2062
     26 N           4.4405   44.8159    8.3503 N.ar    1  UNL1       -0.1048
     27 N           3.2038   44.4006    8.5913 N.ar    1  UNL1       -0.0225
     28 N           3.2338   43.1869    9.1157 N.ar    1  UNL1       -0.0425
@<TRIPOS>BOND
     1    15    16    1
     2    16    14    1
     3     5    14    1
     4     6     7   ar
     5     8     9   ar
     6     9    12   ar
     7    10    12   ar
     8    10     3    1
     9     1    17    1
    10    18    19   ar
    11    20    21   ar
    12    23    20    1
    13    23    25    1
    14    22    17   ar
    15    11    13   ar
    16    11     5   ar
    17     3     1   am
    18    25    24   ar
    19    25    28   ar
    20    26    27   ar
    21     5     6   ar
    22     7     8   ar
    23    10    13   ar
    24     1     2    2
    25    17    18   ar
    26    19    20   ar
    27    24    26   ar
    28    21    22   ar
    29    11     9   ar
    30    27    28   ar
    31     3     4    1
@<TRIPOS>MOLECULE
MolPort-016-718-227 19714870 MCULE-5279797870 PubChem-46975114 ZINC000019714870
 28 31 0 0 0
SMALL
GASTEIGER

@<TRIPOS>ATOM
      1 C           5.6767   41.9465    9.3783 C.2     1  UNL1        0.2509
      2 O           5.5084   42.7620    8.4312 O.2     1  UNL1       -0.2698
      3 N           6.8909   41.1896    9.4836 N.am    1  UNL1       -0.2606
      4 H           6.9744   40.5938   10.2629 H       1  UNL1        0.1571
      5 C          11.5349   41.3278    8.0783 C.ar    1  UNL1        0.1566
      6 C          12.3100   41.3170    6.8994 C.ar    1  UNL1        0.0385
      7 C          11.6950   41.2525    5.6348 C.ar    1  UNL1        0.0037
      8 C          10.2976   41.1969    5.5255 C.ar    1  UNL1        0.0083
      9 C           9.5520   41.2070    6.7005 C.ar    1  UNL1        0.0527
     10 C           7.9943   41.2126    8.5701 C.ar    1  UNL1        0.1659
     11 C          10.1433   41.2714    7.9539 C.ar    1  UNL1        0.1230
     12 S           7.8852   41.1502    6.8763 S.2     1  UNL1       -0.0513
     13 N           9.2773   41.2744    9.0005 N.ar    1  UNL1       -0.2208
     14 O          12.1201   41.3826    9.3495 O.3     1  UNL1       -0.4739
     15 C          12.7645   39.8169   11.0721 C.3     1  UNL1        0.0512
     16 C          13.1536   40.4995    9.7733 C.3     1  UNL1        0.2056
     17 C           4.6184   41.7719   10.3889 C.ar    1  UNL1        0.0537
     18 C           3.5555   42.6839   10.4660 C.ar    1  UNL1        0.0043
     19 C           2.5529   42.5221   11.4263 C.ar    1  UNL1       -0.0022
     20 C           2.6076   41.4494   12.3214 C.ar    1  UNL1        0.0022
     21 C           3.6597   40.5314   12.2457 C.ar    1  UNL1       -0.0022
     22 C           4.6626   40.6937   11.2854 C.ar    1  UNL1        0.0043
     23 C           1.5257   41.2620   13.3294 C.3     1  UNL1        0.1573
     24 C          -0.4963   42.7351   13.2402 C.ar    1  UNL1        0.2218
     25 N           0.7960   42.5048   13.5197 N.ar    1  UNL1       -0.2062
     26 N          -0.7927   43.9964   13.6151 N.ar    1  UNL1       -0.1048
     27 N           0.3242   44.5016   14.1225 N.ar    1  UNL1       -0.0225
     28 N           1.2880   43.5975   14.0705 N.ar    1  UNL1       -0.0425
@<TRIPOS>BOND
     1    15    16    1
     2    16    14    1
     3     5    14    1
     4     6     7   ar
     5     8     9   ar
     6     9    12   ar
     7    10    12   ar
     8    10     3    1
     9     1    17    1
    10    18    19   ar
    11    20    21   ar
    12    23    20    1
    13    23    25    1
    14    22    17   ar
    15    11    13   ar
    16    11     5   ar
    17     3     1   am
    18    25    24   ar
    19    25    28   ar
    20    26    27   ar
    21     5     6   ar
    22     7     8   ar
    23    10    13   ar
    24     1     2    2
    25    17    18   ar
    26    19    20   ar
    27    24    26   ar
    28    21    22   ar
    29    11     9   ar
    30    27    28   ar
    31     3     4    1
@<TRIPOS>MOLECULE
MolPort-016-718-227 19714870 MCULE-5279797870 PubChem-46975114 ZINC000019714870
 28 31 0 0 0
SMALL
GASTEIGER

@<TRIPOS>ATOM
      1 C           9.6204   42.2198    9.0630 C.2     1  UNL1        0.2509
      2 O          10.2133   43.3060    8.8204 O.2     1  UNL1       -0.2698
      3 N          10.3666   41.0291    9.3528 N.am    1  UNL1       -0.2606
      4 H           9.8453   40.2214    9.5650 H       1  UNL1        0.1571
      5 C          14.6950   39.3806   10.8043 C.ar    1  UNL1        0.1566
      6 C          16.0646   39.5140   10.4921 C.ar    1  UNL1        0.0385
      7 C          16.4857   40.3640    9.4521 C.ar    1  UNL1        0.0037
      8 C          15.5483   41.0939    8.7064 C.ar    1  UNL1        0.0083
      9 C          14.2027   40.9466    9.0295 C.ar    1  UNL1        0.0527
     10 C          11.7930   40.8961    9.3649 C.ar    1  UNL1        0.1659
     11 C          13.7721   40.1139   10.0522 C.ar    1  UNL1        0.1230
     12 S          12.8746   41.6838    8.3187 S.2     1  UNL1       -0.0513
     13 N          12.4275   40.0824   10.2426 N.ar    1  UNL1       -0.2208
     14 O          14.2471   38.5359   11.8277 O.3     1  UNL1       -0.4739
     15 C          13.3445   36.4803   10.9366 C.3     1  UNL1        0.0512
     16 C          14.4130   37.1218   11.8032 C.3     1  UNL1        0.2056
     17 C           8.1475   42.1731    9.0527 C.ar    1  UNL1        0.0537
     18 C           7.4009   43.2867    9.4652 C.ar    1  UNL1        0.0043
     19 C           6.0039   43.2430    9.4598 C.ar    1  UNL1       -0.0022
     20 C           5.3415   42.0830    9.0467 C.ar    1  UNL1        0.0022
     21 C           6.0787   40.9715    8.6265 C.ar    1  UNL1       -0.0022
     22 C           7.4759   41.0154    8.6323 C.ar    1  UNL1        0.0043
     23 C           3.8518   42.0443    9.0170 C.3     1  UNL1        0.1573
     24 C           3.8670   41.1131   11.3406 C.ar    1  UNL1        0.2218
     25 N           3.3275   41.8528   10.3592 N.ar    1  UNL1       -0.2062
     26 N           3.0998   41.2459   12.4419 N.ar    1  UNL1       -0.1048
     27 N           2.1158   42.0706   12.1077 N.ar    1  UNL1       -0.0225
     28 N           2.2542   42.4442   10.8467 N.ar    1  UNL1       -0.0425
@<TRIPOS>BOND
     1    15    16    1
     2    16    14    1
     3     5    14    1
     4     6     7   ar
     5     8     9   ar
     6     9    12   ar
     7    10    12   ar
     8    10     3    1
     9     1    17    1
    10    18    19   ar
    11    20    21   ar
    12    23    20    1
    13    23    25    1
    14    22    17   ar
    15    11    13   ar
    16    11     5   ar
    17     3     1   am
    18    25    24   ar
    19    25    28   ar
    20    26    27   ar
    21     5     6   ar
    22     7     8   ar
    23    10    13   ar
    24     1     2    2
    25    17    18   ar
    26    19    20   ar
    27    24    26   ar
    28    21    22   ar
    29    11     9   ar
    30    27    28   ar
    31     3     4    1
@<TRIPOS>MOLECULE
MolPort-016-718-227 19714870 MCULE-5279797870 PubChem-46975114 ZINC000019714870
 28 31 0 0 0
SMALL
GASTEIGER

@<TRIPOS>ATOM
      1 C          10.3139   42.1639    8.9798 C.2     1  UNL1        0.2509
      2 O          10.6987   43.1821    9.6166 O.2     1  UNL1       -0.2698
      3 N          11.2662   41.2758    8.3775 N.am    1  UNL1       -0.2606
      4 H          10.9038   40.4820    7.9217 H       1  UNL1        0.1571
      5 C          15.8631   40.4096    9.6729 C.ar    1  UNL1        0.1566
      6 C          17.1730   40.8341    9.3651 C.ar    1  UNL1        0.0385
      7 C          17.3974   41.8271    8.3928 C.ar    1  UNL1        0.0037
      8 C          16.3197   42.4118    7.7116 C.ar    1  UNL1        0.0083
      9 C          15.0362   41.9776    8.0290 C.ar    1  UNL1        0.0527
     10 C          12.6909   41.4267    8.3718 C.ar    1  UNL1        0.1659
     11 C          14.7988   41.0010    8.9854 C.ar    1  UNL1        0.1230
     12 S          13.5749   42.4896    7.3851 S.2     1  UNL1       -0.0513
     13 N          13.4908   40.6901    9.1797 N.ar    1  UNL1       -0.2208
     14 O          15.6111   39.4178   10.6291 O.3     1  UNL1       -0.4739
     15 C          16.8540   37.4724    9.9186 C.3     1  UNL1        0.0512
     16 C          15.4994   38.0345   10.3102 C.3     1  UNL1        0.2056
     17 C           8.8730   41.8808    8.8563 C.ar    1  UNL1        0.0537
     18 C           7.9556   42.4828    9.7302 C.ar    1  UNL1        0.0043
     19 C           6.5889   42.2126    9.6169 C.ar    1  UNL1       -0.0022
     20 C           6.1285   41.3336    8.6320 C.ar    1  UNL1        0.0022
     21 C           7.0359   40.7356    7.7519 C.ar    1  UNL1       -0.0022
     22 C           8.4027   41.0058    7.8656 C.ar    1  UNL1        0.0043
     23 C           4.6689   41.0643    8.4947 C.3     1  UNL1        0.1573
     24 C           4.1301   40.8196   10.9271 C.ar    1  UNL1        0.2218
     25 N           3.9777   41.4027    9.7279 N.ar    1  UNL1       -0.2062
     26 N           3.3467   41.4655   11.8149 N.ar    1  UNL1       -0.1048
     27 N           2.7422   42.4326   11.1372 N.ar    1  UNL1       -0.0225
     28 N           3.1268   42.4000    9.8723 N.ar    1  UNL1       -0.0425
@<TRIPOS>BOND
     1    15    16    1
     2    16    14    1
     3     5    14    1
     4     6     7   ar
     5     8     9   ar
     6     9    12   ar
     7    10    12   ar
     8    10     3    1
     9     1    17    1
    10    18    19   ar
    11    20    21   ar
    12    23    20    1
    13    23    25    1
    14    22    17   ar
    15    11    13   ar
    16    11     5   ar
    17     3     1   am
    18    25    24   ar
    19    25    28   ar
    20    26    27   ar
    21     5     6   ar
    22     7     8   ar
    23    10    13   ar
    24     1     2    2
    25    17    18   ar
    26    19    20   ar
    27    24    26   ar
    28    21    22   ar
    29    11     9   ar
    30    27    28   ar
    31     3     4    1
@<TRIPOS>MOLECULE
MolPort-016-718-227 19714870 MCULE-5279797870 PubChem-46975114 ZINC000019714870
 28 31 0 0 0
SMALL
GASTEIGER

@<TRIPOS>ATOM
      1 C          10.2670   39.4370    5.2033 C.2     1  UNL1        0.2509
      2 O          10.1976   40.5020    4.5316 O.2     1  UNL1       -0.2698
      3 N          10.1571   39.4668    6.6335 N.am    1  UNL1       -0.2606
      4 H          10.1872   38.5989    7.0974 H       1  UNL1        0.1571
      5 C           7.9612   43.3661    8.5130 C.ar    1  UNL1        0.1566
      6 C           8.1957   44.3937    9.4511 C.ar    1  UNL1        0.0385
      7 C           9.4120   44.4594   10.1569 C.ar    1  UNL1        0.0037
      8 C          10.4131   43.5013    9.9394 C.ar    1  UNL1        0.0083
      9 C          10.1609   42.4954    9.0113 C.ar    1  UNL1        0.0527
     10 C          10.0080   40.6309    7.4552 C.ar    1  UNL1        0.1659
     11 C           8.9680   42.4180    8.3071 C.ar    1  UNL1        0.1230
     12 S          11.1597   41.2296    8.5505 S.2     1  UNL1       -0.0513
     13 N           8.8783   41.3782    7.4375 N.ar    1  UNL1       -0.2208
     14 O           6.7576   43.2714    7.8032 O.3     1  UNL1       -0.4739
     15 C           5.1198   42.0111    9.0537 C.3     1  UNL1        0.0512
     16 C           5.4771   43.3443    8.4218 C.3     1  UNL1        0.2056
     17 C          10.4587   38.1491    4.5132 C.ar    1  UNL1        0.0537
     18 C           9.3503   37.3882    4.1131 C.ar    1  UNL1        0.0043
     19 C           9.5301   36.1647    3.4618 C.ar    1  UNL1       -0.0022
     20 C          10.8205   35.6890    3.2098 C.ar    1  UNL1        0.0022
     21 C          11.9305   36.4454    3.5984 C.ar    1  UNL1       -0.0022
     22 C          11.7504   37.6689    4.2500 C.ar    1  UNL1        0.0043
     23 C          11.0130   34.3963    2.4932 C.3     1  UNL1        0.1573
     24 C          12.6875   32.8799    3.5718 C.ar    1  UNL1        0.2218
     25 N          11.4453   33.3661    3.4232 N.ar    1  UNL1       -0.2062
     26 N          12.6728   31.9798    4.5761 N.ar    1  UNL1       -0.1048
     27 N          11.4236   31.9454    5.0214 N.ar    1  UNL1       -0.0225
     28 N          10.6781   32.7888    4.3273 N.ar    1  UNL1       -0.0425
@<TRIPOS>BOND
     1    15    16    1
     2    16    14    1
     3     5    14    1
     4     6     7   ar
     5     8     9   ar
     6     9    12   ar
     7    10    12   ar
     8    10     3    1
     9     1    17    1
    10    18    19   ar
    11    20    21   ar
    12    23    20    1
    13    23    25    1
    14    22    17   ar
    15    11    13   ar
    16    11     5   ar
    17     3     1   am
    18    25    24   ar
    19    25    28   ar
    20    26    27   ar
    21     5     6   ar
    22     7     8   ar
    23    10    13   ar
    24     1     2    2
    25    17    18   ar
    26    19    20   ar
    27    24    26   ar
    28    21    22   ar
    29    11     9   ar
    30    27    28   ar
    31     3     4    1
@<TRIPOS>MOLECULE
MolPort-016-718-227 19714870 MCULE-5279797870 PubChem-46975114 ZINC000019714870
 28 31 0 0 0
SMALL
GASTEIGER

@<TRIPOS>ATOM
      1 C          10.4163   41.2574    9.8527 C.2     1  UNL1        0.2509
      2 O          10.8076   41.5955   11.0029 O.2     1  UNL1       -0.2698
      3 N          11.3542   40.8056    8.8655 N.am    1  UNL1       -0.2606
      4 H          10.9825   40.5259    7.9978 H       1  UNL1        0.1571
      5 C          16.0028   42.0464    8.2245 C.ar    1  UNL1        0.1566
      6 C          17.2955   41.6440    8.6220 C.ar    1  UNL1        0.0385
      7 C          17.4740   40.5401    9.4771 C.ar    1  UNL1        0.0037
      8 C          16.3667   39.8204    9.9500 C.ar    1  UNL1        0.0083
      9 C          15.1008   40.2349    9.5473 C.ar    1  UNL1        0.0527
     10 C          12.7766   40.7201    9.0138 C.ar    1  UNL1        0.1659
     11 C          14.9087   41.3199    8.7042 C.ar    1  UNL1        0.1230
     12 S          13.6124   39.5749    9.9490 S.2     1  UNL1       -0.0513
     13 N          13.6126   41.5946    8.4041 N.ar    1  UNL1       -0.2208
     14 O          15.7953   43.1458    7.3820 O.3     1  UNL1       -0.4739
     15 C          15.2430   44.0473    5.2103 C.3     1  UNL1        0.0512
     16 C          14.7936   43.1777    6.3705 C.3     1  UNL1        0.2056
     17 C           8.9822   41.3229    9.5202 C.ar    1  UNL1        0.0537
     18 C           8.4896   40.6739    8.3784 C.ar    1  UNL1        0.0043
     19 C           7.1303   40.7380    8.0594 C.ar    1  UNL1       -0.0022
     20 C           6.2526   41.4565    8.8769 C.ar    1  UNL1        0.0022
     21 C           6.7346   42.0997   10.0213 C.ar    1  UNL1       -0.0022
     22 C           8.0942   42.0356   10.3399 C.ar    1  UNL1        0.0043
     23 C           4.7990   41.5047    8.5511 C.3     1  UNL1        0.1573
     24 C           4.1855   40.8675   10.8929 C.ar    1  UNL1        0.2218
     25 N           4.0132   41.5844    9.7714 N.ar    1  UNL1       -0.2062
     26 N           3.2840   41.2847   11.8053 N.ar    1  UNL1       -0.1048
     27 N           2.5896   42.2522   11.2207 N.ar    1  UNL1       -0.0225
     28 N           3.0329   42.4395    9.9889 N.ar    1  UNL1       -0.0425
@<TRIPOS>BOND
     1    15    16    1
     2    16    14    1
     3     5    14    1
     4     6     7   ar
     5     8     9   ar
     6     9    12   ar
     7    10    12   ar
     8    10     3    1
     9     1    17    1
    10    18    19   ar
    11    20    21   ar
    12    23    20    1
    13    23    25    1
    14    22    17   ar
    15    11    13   ar
    16    11     5   ar
    17     3     1   am
    18    25    24   ar
    19    25    28   ar
    20    26    27   ar
    21     5     6   ar
    22     7     8   ar
    23    10    13   ar
    24     1     2    2
    25    17    18   ar
    26    19    20   ar
    27    24    26   ar
    28    21    22   ar
    29    11     9   ar
    30    27    28   ar
    31     3     4    1
@<TRIPOS>MOLECULE
MolPort-016-718-227 19714870 MCULE-5279797870 PubChem-46975114 ZINC000019714870
 28 31 0 0 0
SMALL
GASTEIGER

@<TRIPOS>ATOM
      1 C          10.2795   41.6843    8.0103 C.2     1  UNL1        0.2509
      2 O           9.6847   41.0390    7.1047 O.2     1  UNL1       -0.2698
      3 N           9.5534   42.5736    8.8708 N.am    1  UNL1       -0.2606
      4 H          10.0694   43.0236    9.5783 H       1  UNL1        0.1571
      5 C           4.9103   42.5943   10.2854 C.ar    1  UNL1        0.1566
      6 C           3.6559   43.0935    9.8756 C.ar    1  UNL1        0.0385
      7 C           3.5333   43.8475    8.6931 C.ar    1  UNL1        0.0037
      8 C           4.6594   44.1163    7.9011 C.ar    1  UNL1        0.0083
      9 C           5.8872   43.6161    8.3241 C.ar    1  UNL1        0.0527
     10 C           8.1540   42.8734    8.8052 C.ar    1  UNL1        0.1659
     11 C           6.0239   42.8705    9.4862 C.ar    1  UNL1        0.1230
     12 S           7.3860   43.7772    7.5894 S.2     1  UNL1       -0.0513
     13 N           7.2879   42.4543    9.7588 N.ar    1  UNL1       -0.2208
     14 O           5.0630   41.8490   11.4613 O.3     1  UNL1       -0.4739
     15 C           3.6003   40.0835   10.7012 C.3     1  UNL1        0.0512
     16 C           4.8128   40.4493   11.5380 C.3     1  UNL1        0.2056
     17 C          11.7330   41.5208    8.1897 C.ar    1  UNL1        0.0537
     18 C          12.6218   41.9438    7.1903 C.ar    1  UNL1        0.0043
     19 C          14.0005   41.7861    7.3570 C.ar    1  UNL1       -0.0022
     20 C          14.5020   41.1989    8.5226 C.ar    1  UNL1        0.0022
     21 C          13.6229   40.7818    9.5269 C.ar    1  UNL1       -0.0022
     22 C          12.2439   40.9394    9.3598 C.ar    1  UNL1        0.0043
     23 C          15.9733   41.0530    8.7119 C.3     1  UNL1        0.1573
     24 C          16.5543   42.9079    7.1344 C.ar    1  UNL1        0.2218
     25 N          16.6543   42.2738    8.3130 N.ar    1  UNL1       -0.2062
     26 N          17.3030   44.0283    7.1911 N.ar    1  UNL1       -0.1048
     27 N          17.8344   44.0547    8.4064 N.ar    1  UNL1       -0.0225
     28 N          17.4387   42.9944    9.0907 N.ar    1  UNL1       -0.0425
@<TRIPOS>BOND
     1    15    16    1
     2    16    14    1
     3     5    14    1
     4     6     7   ar
     5     8     9   ar
     6     9    12   ar
     7    10    12   ar
     8    10     3    1
     9     1    17    1
    10    18    19   ar
    11    20    21   ar
    12    23    20    1
    13    23    25    1
    14    22    17   ar
    15    11    13   ar
    16    11     5   ar
    17     3     1   am
    18    25    24   ar
    19    25    28   ar
    20    26    27   ar
    21     5     6   ar
    22     7     8   ar
    23    10    13   ar
    24     1     2    2
    25    17    18   ar
    26    19    20   ar
    27    24    26   ar
    28    21    22   ar
    29    11     9   ar
    30    27    28   ar
    31     3     4    1
