@<TRIPOS>MOLECULE
Molport-047-885-480 PubChem-165941088
 28 29 0 0 0
SMALL
GASTEIGER

@<TRIPOS>ATOM
      1 C          14.2887   42.1189    7.3387 C.ar    1  UNL1        0.1281
      2 C          14.1650   43.1544    6.4099 C.ar    1  UNL1        0.2251
      3 C          12.2385   42.2447    6.5286 C.ar    1  UNL1        0.2138
      4 C          13.0315   41.5385    7.4047 C.ar    1  UNL1        0.1269
      5 O          12.9320   43.1972    5.9509 O.2     1  UNL1       -0.4347
      6 C          10.3724   41.0413    5.3166 C.2     1  UNL1        0.4079
      7 O          11.1791   40.3713    4.6146 O.2     1  UNL1       -0.2260
      8 N          10.8538   41.9828    6.2792 N.am    1  UNL1       -0.2204
      9 H          10.1890   42.4837    6.8049 H       1  UNL1        0.1611
     10 O           8.9964   40.8738    5.1642 O.3     1  UNL1       -0.4294
     11 C           8.1594   40.5117    6.2532 C.3     1  UNL1        0.2367
     12 C           7.6561   41.7383    6.9272 C.ar    1  UNL1        0.0213
     13 C           6.9899   42.7207    6.1867 C.ar    1  UNL1       -0.0007
     14 C           6.5384   43.8851    6.8157 C.ar    1  UNL1       -0.0002
     15 C           6.7580   44.0706    8.1842 C.ar    1  UNL1       -0.0000
     16 C           7.4313   43.0931    8.9234 C.ar    1  UNL1       -0.0002
     17 C           7.8830   41.9285    8.2947 C.ar    1  UNL1       -0.0007
     18 C          15.2325   44.1063    5.9609 C.3     1  UNL1        0.4513
     19 F          16.3223   43.4002    5.4866 F       1  UNL1       -0.1632
     20 F          15.6388   44.8911    7.0248 F       1  UNL1       -0.1632
     21 F          14.7404   44.9279    4.9638 F       1  UNL1       -0.1632
     22 C          15.4900   41.7119    8.1000 C.2     1  UNL1        0.3450
     23 O          15.3944   40.8808    9.0432 O.2     1  UNL1       -0.2448
     24 O          16.7350   42.2517    7.7701 O.3     1  UNL1       -0.4454
     25 C          18.4181   43.9476    7.9538 C.3     1  UNL1        0.0513
     26 C          17.5006   43.0023    8.7006 C.3     1  UNL1        0.2089
     27 C          12.6146   40.4251    8.2182 C.1     1  UNL1        0.1052
     28 N          12.2796   39.5312    8.8722 N.1     1  UNL1       -0.1907
@<TRIPOS>BOND
     1    25    26    1
     2    26    24    1
     3    22    24    1
     4    22     1    1
     5     2     5   ar
     6     3     5   ar
     7     3     8    1
     8     4    27    1
     9     4     1   ar
    10     6    10    1
    11    11    10    1
    12    11    12    1
    13    13    14   ar
    14    15    16   ar
    15    17    12   ar
    16    18     2    1
    17    18    19    1
    18    18    20    1
    19    18    21    1
    20     8     6   am
    21    22    23    2
    22     1     2   ar
    23     3     4   ar
    24     6     7    2
    25    12    13   ar
    26    14    15   ar
    27    16    17   ar
    28    27    28    3
    29     8     9    1
@<TRIPOS>MOLECULE
Molport-047-885-480 PubChem-165941088
 28 29 0 0 0
SMALL
GASTEIGER

@<TRIPOS>ATOM
      1 C          14.4569   41.9708    7.5545 C.ar    1  UNL1        0.1281
      2 C          14.4798   43.0680    6.6908 C.ar    1  UNL1        0.2251
      3 C          12.4866   42.3099    6.6172 C.ar    1  UNL1        0.2138
      4 C          13.1579   41.4899    7.4959 C.ar    1  UNL1        0.1269
      5 O          13.2903   43.2374    6.1529 O.2     1  UNL1       -0.4347
      6 C          10.5967   41.1595    5.3906 C.2     1  UNL1        0.4079
      7 O          11.3690   40.3001    4.8830 O.2     1  UNL1       -0.2260
      8 N          11.1079   42.1754    6.2572 N.am    1  UNL1       -0.2204
      9 H          10.4696   42.8252    6.6309 H       1  UNL1        0.1611
     10 O           9.2302   41.1316    5.1138 O.3     1  UNL1       -0.4294
     11 C           8.2938   40.5571    6.0141 C.3     1  UNL1        0.2367
     12 C           7.6305   41.6316    6.7999 C.ar    1  UNL1        0.0213
     13 C           7.4395   41.4754    8.1771 C.ar    1  UNL1       -0.0007
     14 C           6.7940   42.4748    8.9117 C.ar    1  UNL1       -0.0002
     15 C           6.3336   43.6283    8.2688 C.ar    1  UNL1       -0.0000
     16 C           6.5166   43.7814    6.8910 C.ar    1  UNL1       -0.0002
     17 C           7.1621   42.7820    6.1560 C.ar    1  UNL1       -0.0007
     18 C          15.6460   43.9572    6.3801 C.3     1  UNL1        0.4513
     19 F          16.0781   44.5853    7.5335 F       1  UNL1       -0.1632
     20 F          15.2696   44.9208    5.4622 F       1  UNL1       -0.1632
     21 F          16.6773   43.2091    5.8432 F       1  UNL1       -0.1632
     22 C          15.5652   41.4229    8.3668 C.2     1  UNL1        0.3450
     23 O          16.5513   42.1478    8.6692 O.2     1  UNL1       -0.2448
     24 O          15.5163   40.0963    8.8002 O.3     1  UNL1       -0.4454
     25 C          14.9104   39.2481   10.9581 C.3     1  UNL1        0.0513
     26 C          16.0421   39.6948   10.0564 C.3     1  UNL1        0.2089
     27 C          12.5998   40.3657    8.2029 C.1     1  UNL1        0.1052
     28 N          12.1520   39.4625    8.7710 N.1     1  UNL1       -0.1907
@<TRIPOS>BOND
     1    25    26    1
     2    26    24    1
     3    22    24    1
     4    22     1    1
     5     2     5   ar
     6     3     5   ar
     7     3     8    1
     8     4    27    1
     9     4     1   ar
    10     6    10    1
    11    11    10    1
    12    11    12    1
    13    13    14   ar
    14    15    16   ar
    15    17    12   ar
    16    18     2    1
    17    18    19    1
    18    18    20    1
    19    18    21    1
    20     8     6   am
    21    22    23    2
    22     1     2   ar
    23     3     4   ar
    24     6     7    2
    25    12    13   ar
    26    14    15   ar
    27    16    17   ar
    28    27    28    3
    29     8     9    1
@<TRIPOS>MOLECULE
Molport-047-885-480 PubChem-165941088
 28 29 0 0 0
SMALL
GASTEIGER

@<TRIPOS>ATOM
      1 C          13.9997   41.6839    7.9905 C.ar    1  UNL1        0.1281
      2 C          13.6227   42.6365    7.0414 C.ar    1  UNL1        0.2251
      3 C          11.8192   41.6680    7.6434 C.ar    1  UNL1        0.2138
      4 C          12.8195   41.0641    8.3712 C.ar    1  UNL1        0.1269
      5 O          12.3192   42.5964    6.8624 O.2     1  UNL1       -0.4347
      6 C           9.4748   42.0464    8.5153 C.2     1  UNL1        0.4079
      7 O           9.8284   43.0396    9.2089 O.2     1  UNL1       -0.2260
      8 N          10.4294   41.3355    7.7229 N.am    1  UNL1       -0.2204
      9 H          10.1096   40.5669    7.1974 H       1  UNL1        0.1611
     10 O           8.1452   41.6259    8.5110 O.3     1  UNL1       -0.4294
     11 C           7.2748   41.8780    9.6047 C.3     1  UNL1        0.2367
     12 C           6.1445   42.7353    9.1580 C.ar    1  UNL1        0.0213
     13 C           4.8363   42.4273    9.5465 C.ar    1  UNL1       -0.0007
     14 C           3.7709   43.2189    9.1064 C.ar    1  UNL1       -0.0002
     15 C           4.0124   44.3154    8.2727 C.ar    1  UNL1       -0.0000
     16 C           5.3187   44.6189    7.8770 C.ar    1  UNL1       -0.0002
     17 C           6.3844   43.8274    8.3169 C.ar    1  UNL1       -0.0007
     18 C          14.5152   43.5886    6.3037 C.3     1  UNL1        0.4513
     19 F          13.7713   44.3265    5.4017 F       1  UNL1       -0.1632
     20 F          15.4830   42.8835    5.6117 F       1  UNL1       -0.1632
     21 F          15.1378   44.4384    7.1989 F       1  UNL1       -0.1632
     22 C          15.3571   41.3842    8.4962 C.2     1  UNL1        0.3450
     23 O          15.6771   40.2030    8.7991 O.2     1  UNL1       -0.2448
     24 O          16.2873   42.4162    8.6372 O.3     1  UNL1       -0.4454
     25 C          18.1955   43.7264    8.0166 C.3     1  UNL1        0.0513
     26 C          17.5871   42.3407    8.0712 C.3     1  UNL1        0.2089
     27 C          12.6486   40.0047    9.3322 C.1     1  UNL1        0.1052
     28 N          12.5117   39.1539   10.1046 N.1     1  UNL1       -0.1907
@<TRIPOS>BOND
     1    25    26    1
     2    26    24    1
     3    22    24    1
     4    22     1    1
     5     2     5   ar
     6     3     5   ar
     7     3     8    1
     8     4    27    1
     9     4     1   ar
    10     6    10    1
    11    11    10    1
    12    11    12    1
    13    13    14   ar
    14    15    16   ar
    15    17    12   ar
    16    18     2    1
    17    18    19    1
    18    18    20    1
    19    18    21    1
    20     8     6   am
    21    22    23    2
    22     1     2   ar
    23     3     4   ar
    24     6     7    2
    25    12    13   ar
    26    14    15   ar
    27    16    17   ar
    28    27    28    3
    29     8     9    1
@<TRIPOS>MOLECULE
Molport-047-885-480 PubChem-165941088
 28 29 0 0 0
SMALL
GASTEIGER

@<TRIPOS>ATOM
      1 C          15.3383   42.1936    7.9259 C.ar    1  UNL1        0.1281
      2 C          15.1452   42.9925    6.7968 C.ar    1  UNL1        0.2251
      3 C          13.2279   42.1884    7.2767 C.ar    1  UNL1        0.2138
      4 C          14.0862   41.6792    8.2249 C.ar    1  UNL1        0.1269
      5 O          13.8781   42.9637    6.4412 O.2     1  UNL1       -0.4347
      6 C          11.2669   40.6575    6.8177 C.2     1  UNL1        0.4079
      7 O          12.0167   39.6917    6.5056 O.2     1  UNL1       -0.2260
      8 N          11.8247   41.9154    7.2067 N.am    1  UNL1       -0.2204
      9 H          11.2026   42.6413    7.4420 H       1  UNL1        0.1611
     10 O           9.8802   40.5130    6.7879 O.3     1  UNL1       -0.4294
     11 C           9.1350   40.1837    7.9514 C.3     1  UNL1        0.2367
     12 C           9.2123   41.3021    8.9288 C.ar    1  UNL1        0.0213
     13 C           8.6122   42.5312    8.6349 C.ar    1  UNL1       -0.0007
     14 C           8.7058   43.5905    9.5429 C.ar    1  UNL1       -0.0002
     15 C           9.4046   43.4232   10.7427 C.ar    1  UNL1       -0.0000
     16 C          10.0119   42.1977   11.0334 C.ar    1  UNL1       -0.0002
     17 C           9.9185   41.1382   10.1254 C.ar    1  UNL1       -0.0007
     18 C          16.1790   43.7862    6.0562 C.3     1  UNL1        0.4513
     19 F          15.7711   43.9862    4.7504 F       1  UNL1       -0.1632
     20 F          17.3798   43.1001    6.0478 F       1  UNL1       -0.1632
     21 F          16.3678   45.0070    6.6770 F       1  UNL1       -0.1632
     22 C          16.5962   41.9379    8.6610 C.2     1  UNL1        0.3450
     23 O          17.2838   42.8993    9.0996 O.2     1  UNL1       -0.2448
     24 O          17.0219   40.6243    8.8697 O.3     1  UNL1       -0.4454
     25 C          18.3615   39.1680   10.2215 C.3     1  UNL1        0.0513
     26 C          17.1472   40.0713   10.1713 C.3     1  UNL1        0.2089
     27 C          13.7301   40.7935    9.3037 C.1     1  UNL1        0.1052
     28 N          13.4442   40.0823   10.1707 N.1     1  UNL1       -0.1907
@<TRIPOS>BOND
     1    25    26    1
     2    26    24    1
     3    22    24    1
     4    22     1    1
     5     2     5   ar
     6     3     5   ar
     7     3     8    1
     8     4    27    1
     9     4     1   ar
    10     6    10    1
    11    11    10    1
    12    11    12    1
    13    13    14   ar
    14    15    16   ar
    15    17    12   ar
    16    18     2    1
    17    18    19    1
    18    18    20    1
    19    18    21    1
    20     8     6   am
    21    22    23    2
    22     1     2   ar
    23     3     4   ar
    24     6     7    2
    25    12    13   ar
    26    14    15   ar
    27    16    17   ar
    28    27    28    3
    29     8     9    1
@<TRIPOS>MOLECULE
Molport-047-885-480 PubChem-165941088
 28 29 0 0 0
SMALL
GASTEIGER

@<TRIPOS>ATOM
      1 C          14.2943   41.8288    8.1016 C.ar    1  UNL1        0.1281
      2 C          13.7828   42.7284    7.1638 C.ar    1  UNL1        0.2251
      3 C          12.0883   41.7644    8.0312 C.ar    1  UNL1        0.2138
      4 C          13.1836   41.2114    8.6555 C.ar    1  UNL1        0.1269
      5 O          12.4682   42.6607    7.1513 O.2     1  UNL1       -0.4347
      6 C           9.8485   42.1783    9.1318 C.2     1  UNL1        0.4079
      7 O          10.2508   43.2358    9.6907 O.2     1  UNL1       -0.2260
      8 N          10.7263   41.4160    8.2994 N.am    1  UNL1       -0.2204
      9 H          10.3704   40.5978    7.8834 H       1  UNL1        0.1611
     10 O           8.5391   41.7358    9.3177 O.3     1  UNL1       -0.4294
     11 C           7.8213   41.9982   10.5149 C.3     1  UNL1        0.2367
     12 C           6.4160   41.5335   10.3682 C.ar    1  UNL1        0.0213
     13 C           5.8107   41.5218    9.1069 C.ar    1  UNL1       -0.0007
     14 C           4.4817   41.1082    8.9725 C.ar    1  UNL1       -0.0002
     15 C           3.7553   40.7120   10.0999 C.ar    1  UNL1       -0.0000
     16 C           4.3569   40.7316   11.3620 C.ar    1  UNL1       -0.0002
     17 C           5.6860   41.1452   11.4968 C.ar    1  UNL1       -0.0007
     18 C          14.5570   43.6562    6.2766 C.3     1  UNL1        0.4513
     19 F          15.4290   42.9313    5.4858 F       1  UNL1       -0.1632
     20 F          15.2867   44.5425    7.0478 F       1  UNL1       -0.1632
     21 F          13.6885   44.3736    5.4751 F       1  UNL1       -0.1632
     22 C          15.7099   41.5740    8.4469 C.2     1  UNL1        0.3450
     23 O          16.5835   42.4606    8.2466 O.2     1  UNL1       -0.2448
     24 O          16.0780   40.3447    8.9981 O.3     1  UNL1       -0.4454
     25 C          16.8030   39.1242   10.9288 C.3     1  UNL1        0.0513
     26 C          17.1289   40.2289    9.9456 C.3     1  UNL1        0.2089
     27 C          13.1552   40.1977    9.6787 C.1     1  UNL1        0.1052
     28 N          13.1330   39.3837   10.5008 N.1     1  UNL1       -0.1907
@<TRIPOS>BOND
     1    25    26    1
     2    26    24    1
     3    22    24    1
     4    22     1    1
     5     2     5   ar
     6     3     5   ar
     7     3     8    1
     8     4    27    1
     9     4     1   ar
    10     6    10    1
    11    11    10    1
    12    11    12    1
    13    13    14   ar
    14    15    16   ar
    15    17    12   ar
    16    18     2    1
    17    18    19    1
    18    18    20    1
    19    18    21    1
    20     8     6   am
    21    22    23    2
    22     1     2   ar
    23     3     4   ar
    24     6     7    2
    25    12    13   ar
    26    14    15   ar
    27    16    17   ar
    28    27    28    3
    29     8     9    1
@<TRIPOS>MOLECULE
Molport-047-885-480 PubChem-165941088
 28 29 0 0 0
SMALL
GASTEIGER

@<TRIPOS>ATOM
      1 C          14.0315   41.6788    8.0912 C.ar    1  UNL1        0.1281
      2 C          13.5282   42.5890    7.1591 C.ar    1  UNL1        0.2251
      3 C          11.8278   41.5956    7.9807 C.ar    1  UNL1        0.2138
      4 C          12.9170   41.0424    8.6152 C.ar    1  UNL1        0.1269
      5 O          12.2147   42.5096    7.1223 O.2     1  UNL1       -0.4347
      6 C           9.5241   40.9115    7.1903 C.2     1  UNL1        0.4079
      7 O           9.8670   40.9381    5.9761 O.2     1  UNL1       -0.2260
      8 N          10.4646   41.2306    8.2190 N.am    1  UNL1       -0.2204
      9 H          10.1540   41.1970    9.1527 H       1  UNL1        0.1611
     10 O           8.2204   40.5697    7.5484 O.3     1  UNL1       -0.4294
     11 C           7.1832   41.5377    7.6184 C.3     1  UNL1        0.2367
     12 C           6.4646   41.4089    8.9142 C.ar    1  UNL1        0.0213
     13 C           7.1489   41.6128   10.1173 C.ar    1  UNL1       -0.0007
     14 C           6.4793   41.4675   11.3363 C.ar    1  UNL1       -0.0002
     15 C           5.1268   41.1124   11.3532 C.ar    1  UNL1       -0.0000
     16 C           4.4444   40.9001   10.1513 C.ar    1  UNL1       -0.0002
     17 C           5.1137   41.0452    8.9321 C.ar    1  UNL1       -0.0007
     18 C          14.3091   43.5381    6.3009 C.3     1  UNL1        0.4513
     19 F          15.2599   42.8431    5.5769 F       1  UNL1       -0.1632
     20 F          14.9489   44.4714    7.0961 F       1  UNL1       -0.1632
     21 F          13.4569   44.1992    5.4359 F       1  UNL1       -0.1632
     22 C          15.4432   41.4311    8.4572 C.2     1  UNL1        0.3450
     23 O          15.8333   40.2651    8.7356 O.2     1  UNL1       -0.2448
     24 O          16.3465   42.4955    8.4932 O.3     1  UNL1       -0.4454
     25 C          18.2393   43.8124    7.8404 C.3     1  UNL1        0.0513
     26 C          17.6052   42.4372    7.8391 C.3     1  UNL1        0.2089
     27 C          12.8802   40.0119    9.6212 C.1     1  UNL1        0.1052
     28 N          12.8501   39.1843   10.4294 N.1     1  UNL1       -0.1907
@<TRIPOS>BOND
     1    25    26    1
     2    26    24    1
     3    22    24    1
     4    22     1    1
     5     2     5   ar
     6     3     5   ar
     7     3     8    1
     8     4    27    1
     9     4     1   ar
    10     6    10    1
    11    11    10    1
    12    11    12    1
    13    13    14   ar
    14    15    16   ar
    15    17    12   ar
    16    18     2    1
    17    18    19    1
    18    18    20    1
    19    18    21    1
    20     8     6   am
    21    22    23    2
    22     1     2   ar
    23     3     4   ar
    24     6     7    2
    25    12    13   ar
    26    14    15   ar
    27    16    17   ar
    28    27    28    3
    29     8     9    1
@<TRIPOS>MOLECULE
Molport-047-885-480 PubChem-165941088
 28 29 0 0 0
SMALL
GASTEIGER

@<TRIPOS>ATOM
      1 C           7.7911   41.7588    8.3236 C.ar    1  UNL1        0.1281
      2 C           7.9704   43.1043    8.6520 C.ar    1  UNL1        0.2251
      3 C           9.8495   42.1605    9.0145 C.ar    1  UNL1        0.2138
      4 C           9.0181   41.1600    8.5640 C.ar    1  UNL1        0.1269
      5 O           9.2065   43.3036    9.0583 O.2     1  UNL1       -0.4347
      6 C          12.3032   41.9112    8.4519 C.2     1  UNL1        0.4079
      7 O          12.0896   42.0000    7.2114 O.2     1  UNL1       -0.2260
      8 N          11.2211   41.9856    9.3837 N.am    1  UNL1       -0.2204
      9 H          11.4336   41.9116   10.3421 H       1  UNL1        0.1611
     10 O          13.6003   41.7388    8.9344 O.3     1  UNL1       -0.4294
     11 C          14.6235   41.1523    8.1429 C.3     1  UNL1        0.2367
     12 C          15.6731   42.1647    7.8509 C.ar    1  UNL1        0.0213
     13 C          16.8907   42.1293    8.5391 C.ar    1  UNL1       -0.0007
     14 C          17.8680   43.0958    8.2823 C.ar    1  UNL1       -0.0002
     15 C          17.6261   44.1019    7.3415 C.ar    1  UNL1       -0.0000
     16 C          16.4062   44.1430    6.6593 C.ar    1  UNL1       -0.0002
     17 C          15.4286   43.1766    6.9161 C.ar    1  UNL1       -0.0007
     18 C           6.9532   44.2028    8.5760 C.3     1  UNL1        0.4513
     19 F           6.5821   44.4091    7.2602 F       1  UNL1       -0.1632
     20 F           7.4903   45.3749    9.0764 F       1  UNL1       -0.1632
     21 F           5.8415   43.8665    9.3259 F       1  UNL1       -0.1632
     22 C           6.5673   41.0944    7.8246 C.2     1  UNL1        0.3450
     23 O           5.6045   40.8644    8.6053 O.2     1  UNL1       -0.2448
     24 O           6.4799   40.7219    6.4816 O.3     1  UNL1       -0.4454
     25 C           8.1111   39.5263    5.1959 C.3     1  UNL1        0.0513
     26 C           6.8534   39.4275    6.0335 C.3     1  UNL1        0.2089
     27 C           9.3757   39.7763    8.3838 C.1     1  UNL1        0.1052
     28 N           9.6624   38.6645    8.2390 N.1     1  UNL1       -0.1907
@<TRIPOS>BOND
     1    25    26    1
     2    26    24    1
     3    22    24    1
     4    22     1    1
     5     2     5   ar
     6     3     5   ar
     7     3     8    1
     8     4    27    1
     9     4     1   ar
    10     6    10    1
    11    11    10    1
    12    11    12    1
    13    13    14   ar
    14    15    16   ar
    15    17    12   ar
    16    18     2    1
    17    18    19    1
    18    18    20    1
    19    18    21    1
    20     8     6   am
    21    22    23    2
    22     1     2   ar
    23     3     4   ar
    24     6     7    2
    25    12    13   ar
    26    14    15   ar
    27    16    17   ar
    28    27    28    3
    29     8     9    1
@<TRIPOS>MOLECULE
Molport-047-885-480 PubChem-165941088
 28 29 0 0 0
SMALL
GASTEIGER

@<TRIPOS>ATOM
      1 C           6.9471   41.6453    9.2127 C.ar    1  UNL1        0.1281
      2 C           7.7957   41.5073   10.3132 C.ar    1  UNL1        0.2251
      3 C           9.0300   41.2580    8.5906 C.ar    1  UNL1        0.2138
      4 C           7.7620   41.4810    8.1032 C.ar    1  UNL1        0.1269
      5 O           9.0252   41.2781    9.9026 O.2     1  UNL1       -0.4347
      6 C          11.4257   41.7433    7.9388 C.2     1  UNL1        0.4079
      7 O          11.5503   42.6321    8.8260 O.2     1  UNL1       -0.2260
      8 N          10.1926   41.0357    7.7860 N.am    1  UNL1       -0.2204
      9 H          10.1398   40.3506    7.0810 H       1  UNL1        0.1611
     10 O          12.4906   41.4369    7.0922 O.3     1  UNL1       -0.4294
     11 C          13.8281   41.3649    7.5646 C.3     1  UNL1        0.2367
     12 C          14.6006   42.5318    7.0607 C.ar    1  UNL1        0.0213
     13 C          15.8822   42.7906    7.5586 C.ar    1  UNL1       -0.0007
     14 C          16.5986   43.9016    7.1029 C.ar    1  UNL1       -0.0002
     15 C          16.0317   44.7579    6.1537 C.ar    1  UNL1       -0.0000
     16 C          14.7475   44.5047    5.6618 C.ar    1  UNL1       -0.0002
     17 C          14.0307   43.3937    6.1174 C.ar    1  UNL1       -0.0007
     18 C           7.4267   41.5957   11.7635 C.3     1  UNL1        0.4513
     19 F           7.9784   40.5326   12.4541 F       1  UNL1       -0.1632
     20 F           6.0512   41.5507   11.9010 F       1  UNL1       -0.1632
     21 F           7.8887   42.7857   12.2942 F       1  UNL1       -0.1632
     22 C           5.4918   41.9105    9.2075 C.2     1  UNL1        0.3450
     23 O           4.6775   40.9869    8.9370 O.2     1  UNL1       -0.2448
     24 O           5.0200   43.1908    9.5049 O.3     1  UNL1       -0.4454
     25 C           4.5407   44.7145    7.7184 C.3     1  UNL1        0.0513
     26 C           3.9634   43.7928    8.7722 C.3     1  UNL1        0.2089
     27 C           7.3834   41.5319    6.7143 C.1     1  UNL1        0.1052
     28 N           7.0798   41.5730    5.5984 N.1     1  UNL1       -0.1907
@<TRIPOS>BOND
     1    25    26    1
     2    26    24    1
     3    22    24    1
     4    22     1    1
     5     2     5   ar
     6     3     5   ar
     7     3     8    1
     8     4    27    1
     9     4     1   ar
    10     6    10    1
    11    11    10    1
    12    11    12    1
    13    13    14   ar
    14    15    16   ar
    15    17    12   ar
    16    18     2    1
    17    18    19    1
    18    18    20    1
    19    18    21    1
    20     8     6   am
    21    22    23    2
    22     1     2   ar
    23     3     4   ar
    24     6     7    2
    25    12    13   ar
    26    14    15   ar
    27    16    17   ar
    28    27    28    3
    29     8     9    1
@<TRIPOS>MOLECULE
Molport-047-885-480 PubChem-165941088
 28 29 0 0 0
SMALL
GASTEIGER

@<TRIPOS>ATOM
      1 C          13.8383   40.3285    9.4300 C.ar    1  UNL1        0.1281
      2 C          13.1433   39.9453   10.5791 C.ar    1  UNL1        0.2251
      3 C          11.7581   41.0684    9.4074 C.ar    1  UNL1        0.2138
      4 C          12.9270   41.0560    8.6803 C.ar    1  UNL1        0.1269
      5 O          11.9104   40.4040   10.5286 O.2     1  UNL1       -0.4347
      6 C          10.0968   42.9737    9.5052 C.2     1  UNL1        0.4079
      7 O          10.7771   43.6025   10.3621 O.2     1  UNL1       -0.2260
      8 N          10.5454   41.7122    9.0032 N.am    1  UNL1       -0.2204
      9 H           9.9832   41.2565    8.3358 H       1  UNL1        0.1611
     10 O           8.8947   43.5003    9.0335 O.3     1  UNL1       -0.4294
     11 C           8.0518   42.7731    8.1514 C.3     1  UNL1        0.2367
     12 C           6.6391   43.1955    8.3467 C.ar    1  UNL1        0.0213
     13 C           5.8198   42.5043    9.2457 C.ar    1  UNL1       -0.0007
     14 C           4.4847   42.8859    9.4112 C.ar    1  UNL1       -0.0002
     15 C           3.9665   43.9550    8.6734 C.ar    1  UNL1       -0.0000
     16 C           4.7824   44.6409    7.7684 C.ar    1  UNL1       -0.0002
     17 C           6.1176   44.2595    7.6027 C.ar    1  UNL1       -0.0007
     18 C          13.6628   39.1365   11.7294 C.3     1  UNL1        0.4513
     19 F          13.3594   37.8011   11.5395 F       1  UNL1       -0.1632
     20 F          13.0754   39.5639   12.9063 F       1  UNL1       -0.1632
     21 F          15.0325   39.2925   11.8328 F       1  UNL1       -0.1632
     22 C          15.2421   40.0330    9.0690 C.2     1  UNL1        0.3450
     23 O          16.0373   40.9696    8.7863 O.2     1  UNL1       -0.2448
     24 O          15.6867   38.7094    9.0428 O.3     1  UNL1       -0.4454
     25 C          15.2693   36.3610    9.2744 C.3     1  UNL1        0.0513
     26 C          14.8624   37.6473    8.5866 C.3     1  UNL1        0.2089
     27 C          13.1356   41.6789    7.3982 C.1     1  UNL1        0.1052
     28 N          13.3031   42.1797    6.3686 N.1     1  UNL1       -0.1907
@<TRIPOS>BOND
     1    25    26    1
     2    26    24    1
     3    22    24    1
     4    22     1    1
     5     2     5   ar
     6     3     5   ar
     7     3     8    1
     8     4    27    1
     9     4     1   ar
    10     6    10    1
    11    11    10    1
    12    11    12    1
    13    13    14   ar
    14    15    16   ar
    15    17    12   ar
    16    18     2    1
    17    18    19    1
    18    18    20    1
    19    18    21    1
    20     8     6   am
    21    22    23    2
    22     1     2   ar
    23     3     4   ar
    24     6     7    2
    25    12    13   ar
    26    14    15   ar
    27    16    17   ar
    28    27    28    3
    29     8     9    1
@<TRIPOS>MOLECULE
Molport-047-885-480 PubChem-165941088
 28 29 0 0 0
SMALL
GASTEIGER

@<TRIPOS>ATOM
      1 C           7.9628   41.9051    8.4909 C.ar    1  UNL1        0.1281
      2 C           7.9143   41.1433    7.3214 C.ar    1  UNL1        0.2251
      3 C           9.9546   41.7226    7.5556 C.ar    1  UNL1        0.2138
      4 C           9.2920   42.2734    8.6293 C.ar    1  UNL1        0.1269
      5 O           9.1177   41.0576    6.7945 O.2     1  UNL1       -0.4347
      6 C          12.3375   40.8816    7.6746 C.2     1  UNL1        0.4079
      7 O          11.9976   39.8228    8.2713 O.2     1  UNL1       -0.2260
      8 N          11.3568   41.8526    7.3003 N.am    1  UNL1       -0.2204
      9 H          11.6666   42.6638    6.8364 H       1  UNL1        0.1611
     10 O          13.6771   41.1215    7.3704 O.3     1  UNL1       -0.4294
     11 C          14.0998   42.3211    6.7381 C.3     1  UNL1        0.2367
     12 C          15.4280   42.7266    7.2705 C.ar    1  UNL1        0.0213
     13 C          16.0564   43.8771    6.7818 C.ar    1  UNL1       -0.0007
     14 C          17.3161   44.2449    7.2646 C.ar    1  UNL1       -0.0002
     15 C          17.9509   43.4594    8.2319 C.ar    1  UNL1       -0.0000
     16 C          17.3272   42.3048    8.7147 C.ar    1  UNL1       -0.0002
     17 C          16.0674   41.9366    8.2320 C.ar    1  UNL1       -0.0007
     18 C           6.7104   40.4952    6.7069 C.3     1  UNL1        0.4513
     19 F           7.0398   39.2341    6.2457 F       1  UNL1       -0.1632
     20 F           6.2605   41.2553    5.6427 F       1  UNL1       -0.1632
     21 F           5.6989   40.3985    7.6443 F       1  UNL1       -0.1632
     22 C           6.8504   42.2549    9.4012 C.2     1  UNL1        0.3450
     23 O           6.1175   43.2512    9.1569 O.2     1  UNL1       -0.2448
     24 O           6.6125   41.4759   10.5355 O.3     1  UNL1       -0.4454
     25 C           4.3637   40.6535   10.6339 C.3     1  UNL1        0.0513
     26 C           5.3981   41.5610   11.2661 C.3     1  UNL1        0.2089
     27 C           9.8840   43.0672    9.6755 C.1     1  UNL1        0.1052
     28 N          10.3599   43.7052   10.5156 N.1     1  UNL1       -0.1907
@<TRIPOS>BOND
     1    25    26    1
     2    26    24    1
     3    22    24    1
     4    22     1    1
     5     2     5   ar
     6     3     5   ar
     7     3     8    1
     8     4    27    1
     9     4     1   ar
    10     6    10    1
    11    11    10    1
    12    11    12    1
    13    13    14   ar
    14    15    16   ar
    15    17    12   ar
    16    18     2    1
    17    18    19    1
    18    18    20    1
    19    18    21    1
    20     8     6   am
    21    22    23    2
    22     1     2   ar
    23     3     4   ar
    24     6     7    2
    25    12    13   ar
    26    14    15   ar
    27    16    17   ar
    28    27    28    3
    29     8     9    1
