@<TRIPOS>MOLECULE
MolPort-001-895-901 6783020 CSSS00160246305 PubChem-1950138 ZINC000006783020 ZINC06783020
 23 24 0 0 0
SMALL
GASTEIGER

@<TRIPOS>ATOM
      1 C           7.9545   41.3990    9.0915 C.2     1  UNL1        0.3096
      2 N           9.3045   40.9302    9.1631 N.am    1  UNL1       -0.2468
      3 N           7.0091   40.9305   10.0615 N.am    1  UNL1       -0.2680
      4 O           7.6062   42.2092    8.1906 O.2     1  UNL1       -0.2521
      5 H           9.5284   40.2989    9.8846 H       1  UNL1        0.1584
      6 H           7.3475   40.2992   10.7370 H       1  UNL1        0.1564
      7 C           5.6220   41.2841   10.1521 C.ar    1  UNL1        0.0516
      8 C           4.7618   41.2117    9.0453 C.ar    1  UNL1        0.0147
      9 C           3.4151   41.5647    9.1720 C.ar    1  UNL1        0.0013
     10 C           2.9189   41.9926   10.4063 C.ar    1  UNL1        0.0001
     11 C           3.7695   42.0672   11.5125 C.ar    1  UNL1        0.0013
     12 C           5.1161   41.7139   11.3843 C.ar    1  UNL1        0.0147
     13 C          12.3785   41.9368    7.1557 C.ar    1  UNL1        0.1123
     14 C          10.3544   41.3078    8.2671 C.ar    1  UNL1        0.1889
     15 N          11.3218   41.8346    6.3199 N.ar    1  UNL1       -0.1440
     16 N          10.1937   41.4882    6.9375 N.ar    1  UNL1       -0.1256
     17 S          11.9443   41.5743    8.7457 S.2     1  UNL1       -0.0347
     18 C          13.7547   42.2798    6.6912 C.3     1  UNL1        0.0545
     19 C          13.7827   43.6309    5.9883 C.3     1  UNL1        0.0069
     20 C          15.1642   43.9406    5.4241 C.3     1  UNL1        0.0004
     21 C          16.0400   44.6391    6.4530 C.3     1  UNL1        0.0000
     22 C          17.3500   42.9475    7.6957 C.3     1  UNL1        0.0000
     23 C          17.3859   43.9476    6.5599 C.3     1  UNL1        0.0000
@<TRIPOS>BOND
     1    22    23    1
     2    23    21    1
     3    21    20    1
     4    20    19    1
     5    19    18    1
     6    18    13    1
     7    13    17   ar
     8    14     2    1
     9    14    17   ar
    10     1     3   am
    11     8     9   ar
    12    10    11   ar
    13    12     7   ar
    14    15    16   ar
    15     2     1   am
    16     3     7    1
    17    13    15   ar
    18    14    16   ar
    19     1     4    2
    20     7     8   ar
    21     9    10   ar
    22    11    12   ar
    23     2     5    1
    24     3     6    1
@<TRIPOS>MOLECULE
MolPort-001-895-901 6783020 CSSS00160246305 PubChem-1950138 ZINC000006783020 ZINC06783020
 23 24 0 0 0
SMALL
GASTEIGER

@<TRIPOS>ATOM
      1 C          12.0416   42.0676    6.3879 C.2     1  UNL1        0.3096
      2 N          10.9008   42.1580    5.5289 N.am    1  UNL1       -0.2468
      3 N          13.2669   42.6861    5.9750 N.am    1  UNL1       -0.2680
      4 O          11.9671   41.4546    7.4869 O.2     1  UNL1       -0.2521
      5 H          11.0080   42.6475    4.6814 H       1  UNL1        0.1584
      6 H          13.2558   43.1481    5.1057 H       1  UNL1        0.1564
      7 C          14.5076   42.7030    6.6945 C.ar    1  UNL1        0.0516
      8 C          14.7947   41.7716    7.7047 C.ar    1  UNL1        0.0147
      9 C          16.0153   41.8193    8.3843 C.ar    1  UNL1        0.0013
     10 C          16.9575   42.7986    8.0589 C.ar    1  UNL1        0.0001
     11 C          16.6785   43.7292    7.0544 C.ar    1  UNL1        0.0013
     12 C          15.4573   43.6803    6.3755 C.ar    1  UNL1        0.0147
     13 C           7.4709   40.9362    6.6403 C.ar    1  UNL1        0.1123
     14 C           9.6162   41.5919    5.8062 C.ar    1  UNL1        0.1889
     15 N           7.8286   40.2785    5.5155 N.ar    1  UNL1       -0.1440
     16 N           9.0239   40.6397    5.0521 N.ar    1  UNL1       -0.1256
     17 S           8.6566   42.0404    7.1122 S.2     1  UNL1       -0.0347
     18 C           6.1622   40.7257    7.3261 C.3     1  UNL1        0.0545
     19 C           6.1895   41.2635    8.7510 C.3     1  UNL1        0.0069
     20 C           5.2966   42.4891    8.9046 C.3     1  UNL1        0.0004
     21 C           4.3387   42.3345   10.0760 C.3     1  UNL1        0.0000
     22 C           4.0757   40.2783   11.4269 C.3     1  UNL1        0.0000
     23 C           4.9620   41.4762   11.1603 C.3     1  UNL1        0.0000
@<TRIPOS>BOND
     1    22    23    1
     2    23    21    1
     3    21    20    1
     4    20    19    1
     5    19    18    1
     6    18    13    1
     7    13    17   ar
     8    14     2    1
     9    14    17   ar
    10     1     3   am
    11     8     9   ar
    12    10    11   ar
    13    12     7   ar
    14    15    16   ar
    15     2     1   am
    16     3     7    1
    17    13    15   ar
    18    14    16   ar
    19     1     4    2
    20     7     8   ar
    21     9    10   ar
    22    11    12   ar
    23     2     5    1
    24     3     6    1
@<TRIPOS>MOLECULE
MolPort-001-895-901 6783020 CSSS00160246305 PubChem-1950138 ZINC000006783020 ZINC06783020
 23 24 0 0 0
SMALL
GASTEIGER

@<TRIPOS>ATOM
      1 C          12.4780   41.9922    7.7002 C.2     1  UNL1        0.3096
      2 N          11.3240   41.2474    7.2986 N.am    1  UNL1       -0.2468
      3 N          13.7677   41.5666    7.2418 N.am    1  UNL1       -0.2680
      4 O          12.3592   43.0034    8.4435 O.2     1  UNL1       -0.2521
      5 H          11.4675   40.4659    6.7173 H       1  UNL1        0.1584
      6 H          13.7888   40.7695    6.6645 H       1  UNL1        0.1564
      7 C          15.0308   42.1795    7.5355 C.ar    1  UNL1        0.0516
      8 C          15.9232   41.6334    8.4712 C.ar    1  UNL1        0.0147
      9 C          17.1459   42.2592    8.7311 C.ar    1  UNL1        0.0013
     10 C          17.4849   43.4355    8.0573 C.ar    1  UNL1        0.0001
     11 C          16.6014   43.9850    7.1245 C.ar    1  UNL1        0.0013
     12 C          15.3789   43.3580    6.8656 C.ar    1  UNL1        0.0147
     13 C           7.8650   41.9231    8.7376 C.ar    1  UNL1        0.1123
     14 C           9.9776   41.5507    7.6764 C.ar    1  UNL1        0.1889
     15 N           7.8578   42.2181    7.4190 N.ar    1  UNL1       -0.1440
     16 N           9.0319   42.0079    6.8262 N.ar    1  UNL1       -0.1256
     17 S           9.3836   41.3862    9.2410 S.2     1  UNL1       -0.0347
     18 C           6.6762   42.1084    9.6205 C.3     1  UNL1        0.0545
     19 C           5.4235   42.4117    8.8085 C.3     1  UNL1        0.0069
     20 C           4.2099   41.6663    9.3510 C.3     1  UNL1        0.0004
     21 C           4.6009   40.7034   10.4616 C.3     1  UNL1        0.0000
     22 C           2.8658   42.1430   11.4810 C.3     1  UNL1        0.0000
     23 C           3.7060   40.8982   11.6709 C.3     1  UNL1        0.0000
@<TRIPOS>BOND
     1    22    23    1
     2    23    21    1
     3    21    20    1
     4    20    19    1
     5    19    18    1
     6    18    13    1
     7    13    17   ar
     8    14     2    1
     9    14    17   ar
    10     1     3   am
    11     8     9   ar
    12    10    11   ar
    13    12     7   ar
    14    15    16   ar
    15     2     1   am
    16     3     7    1
    17    13    15   ar
    18    14    16   ar
    19     1     4    2
    20     7     8   ar
    21     9    10   ar
    22    11    12   ar
    23     2     5    1
    24     3     6    1
@<TRIPOS>MOLECULE
MolPort-001-895-901 6783020 CSSS00160246305 PubChem-1950138 ZINC000006783020 ZINC06783020
 23 24 0 0 0
SMALL
GASTEIGER

@<TRIPOS>ATOM
      1 C           6.5727   40.9827    8.2046 C.2     1  UNL1        0.3096
      2 N           5.1442   40.8984    8.2098 N.am    1  UNL1       -0.2468
      3 N           7.2880   40.5028    7.0591 N.am    1  UNL1       -0.2680
      4 O           7.1876   41.4707    9.1911 O.2     1  UNL1       -0.2521
      5 H           4.7093   40.5102    7.4164 H       1  UNL1        0.1584
      6 H           6.7462   40.1342    6.3244 H       1  UNL1        0.1564
      7 C           8.7098   40.5028    6.8701 C.ar    1  UNL1        0.0516
      8 C           9.5313   39.4970    7.4028 C.ar    1  UNL1        0.0147
      9 C          10.9137   39.5305    7.1976 C.ar    1  UNL1        0.0013
     10 C          11.4845   40.5699    6.4585 C.ar    1  UNL1        0.0001
     11 C          10.6729   41.5748    5.9252 C.ar    1  UNL1        0.0013
     12 C           9.2905   41.5400    6.1313 C.ar    1  UNL1        0.0147
     13 C           3.1053   41.7300   11.3151 C.ar    1  UNL1        0.1123
     14 C           4.2989   41.3346    9.2788 C.ar    1  UNL1        0.1889
     15 N           2.7275   42.5488   10.3090 N.ar    1  UNL1       -0.1440
     16 N           3.3883   42.3275    9.1739 N.ar    1  UNL1       -0.1256
     17 S           4.3262   40.6733   10.8247 S.2     1  UNL1       -0.0347
     18 C           2.5307   41.8099   12.6902 C.3     1  UNL1        0.0545
     19 C           1.1803   42.5147   12.6875 C.3     1  UNL1        0.0069
     20 C           0.3928   42.2222   13.9591 C.3     1  UNL1        0.0004
     21 C          -0.9787   42.8791   13.9260 C.3     1  UNL1        0.0000
     22 C          -1.6488   40.5455   14.4027 C.3     1  UNL1        0.0000
     23 C          -2.0613   41.8355   13.7264 C.3     1  UNL1        0.0000
@<TRIPOS>BOND
     1    22    23    1
     2    23    21    1
     3    21    20    1
     4    20    19    1
     5    19    18    1
     6    18    13    1
     7    13    17   ar
     8    14     2    1
     9    14    17   ar
    10     1     3   am
    11     8     9   ar
    12    10    11   ar
    13    12     7   ar
    14    15    16   ar
    15     2     1   am
    16     3     7    1
    17    13    15   ar
    18    14    16   ar
    19     1     4    2
    20     7     8   ar
    21     9    10   ar
    22    11    12   ar
    23     2     5    1
    24     3     6    1
@<TRIPOS>MOLECULE
MolPort-001-895-901 6783020 CSSS00160246305 PubChem-1950138 ZINC000006783020 ZINC06783020
 23 24 0 0 0
SMALL
GASTEIGER

@<TRIPOS>ATOM
      1 C           6.1635   40.9732    7.8981 C.2     1  UNL1        0.3096
      2 N           6.5455   40.7801    6.5327 N.am    1  UNL1       -0.2468
      3 N           4.7688   41.0016    8.2269 N.am    1  UNL1       -0.2680
      4 O           7.0400   41.1155    8.7929 O.2     1  UNL1       -0.2521
      5 H           5.8250   40.6732    5.8703 H       1  UNL1        0.1584
      6 H           4.1379   40.8844    7.4802 H       1  UNL1        0.1564
      7 C           4.1950   41.1828    9.5289 C.ar    1  UNL1        0.0516
      8 C           4.4622   40.3023   10.5889 C.ar    1  UNL1        0.0147
      9 C           3.8845   40.5113   11.8446 C.ar    1  UNL1        0.0013
     10 C           3.0355   41.6021   12.0494 C.ar    1  UNL1        0.0001
     11 C           2.7648   42.4828   10.9986 C.ar    1  UNL1        0.0013
     12 C           3.3433   42.2725    9.7433 C.ar    1  UNL1        0.0147
     13 C          10.2286   40.9712    5.5893 C.ar    1  UNL1        0.1123
     14 C           7.8936   40.7303    6.0554 C.ar    1  UNL1        0.1889
     15 N           9.6165   40.0697    4.7904 N.ar    1  UNL1       -0.1440
     16 N           8.3161   39.9372    5.0462 N.ar    1  UNL1       -0.1256
     17 S           9.1478   41.6517    6.6924 S.2     1  UNL1       -0.0347
     18 C          11.6894   41.2677    5.5137 C.3     1  UNL1        0.0545
     19 C          12.0824   42.3734    6.4850 C.3     1  UNL1        0.0069
     20 C          12.8505   41.8224    7.6805 C.3     1  UNL1        0.0004
     21 C          14.3516   41.8496    7.4360 C.3     1  UNL1        0.0000
     22 C          16.5567   41.6474    8.5400 C.3     1  UNL1        0.0000
     23 C          15.0927   41.2719    8.6268 C.3     1  UNL1        0.0000
@<TRIPOS>BOND
     1    22    23    1
     2    23    21    1
     3    21    20    1
     4    20    19    1
     5    19    18    1
     6    18    13    1
     7    13    17   ar
     8    14     2    1
     9    14    17   ar
    10     1     3   am
    11     8     9   ar
    12    10    11   ar
    13    12     7   ar
    14    15    16   ar
    15     2     1   am
    16     3     7    1
    17    13    15   ar
    18    14    16   ar
    19     1     4    2
    20     7     8   ar
    21     9    10   ar
    22    11    12   ar
    23     2     5    1
    24     3     6    1
@<TRIPOS>MOLECULE
MolPort-001-895-901 6783020 CSSS00160246305 PubChem-1950138 ZINC000006783020 ZINC06783020
 23 24 0 0 0
SMALL
GASTEIGER

@<TRIPOS>ATOM
      1 C          11.5566   42.0551    6.4419 C.2     1  UNL1        0.3096
      2 N          10.3941   41.9577    5.6133 N.am    1  UNL1       -0.2468
      3 N          12.7940   42.4691    5.8487 N.am    1  UNL1       -0.2680
      4 O          11.4904   41.7812    7.6707 O.2     1  UNL1       -0.2521
      5 H          10.4956   42.1825    4.6602 H       1  UNL1        0.1584
      6 H          12.7754   42.6675    4.8846 H       1  UNL1        0.1564
      7 C          14.0565   42.6249    6.5114 C.ar    1  UNL1        0.0516
      8 C          14.9206   43.6932    6.2244 C.ar    1  UNL1        0.0147
      9 C          16.1435   43.8122    6.8911 C.ar    1  UNL1        0.0013
     10 C          16.5112   42.8639    7.8493 C.ar    1  UNL1        0.0001
     11 C          15.6560   41.7977    8.1401 C.ar    1  UNL1        0.0013
     12 C          14.4332   41.6800    7.4726 C.ar    1  UNL1        0.0147
     13 C           7.0048   41.1916    7.1681 C.ar    1  UNL1        0.1123
     14 C           9.0955   41.5587    6.0627 C.ar    1  UNL1        0.1889
     15 N           7.1465   40.4605    6.0408 N.ar    1  UNL1       -0.1440
     16 N           8.3112   40.6609    5.4264 N.ar    1  UNL1       -0.1256
     17 S           8.3578   42.1602    7.4490 S.2     1  UNL1       -0.0347
     18 C           5.7724   41.1613    8.0094 C.3     1  UNL1        0.0545
     19 C           5.8017   42.2484    9.0762 C.3     1  UNL1        0.0069
     20 C           4.4740   42.9925    9.1546 C.3     1  UNL1        0.0004
     21 C           3.4672   42.2422   10.0131 C.3     1  UNL1        0.0000
     22 C           3.9573   40.3233   11.4962 C.3     1  UNL1        0.0000
     23 C           4.1003   41.8206   11.3256 C.3     1  UNL1        0.0000
@<TRIPOS>BOND
     1    22    23    1
     2    23    21    1
     3    21    20    1
     4    20    19    1
     5    19    18    1
     6    18    13    1
     7    13    17   ar
     8    14     2    1
     9    14    17   ar
    10     1     3   am
    11     8     9   ar
    12    10    11   ar
    13    12     7   ar
    14    15    16   ar
    15     2     1   am
    16     3     7    1
    17    13    15   ar
    18    14    16   ar
    19     1     4    2
    20     7     8   ar
    21     9    10   ar
    22    11    12   ar
    23     2     5    1
    24     3     6    1
@<TRIPOS>MOLECULE
MolPort-001-895-901 6783020 CSSS00160246305 PubChem-1950138 ZINC000006783020 ZINC06783020
 23 24 0 0 0
SMALL
GASTEIGER

@<TRIPOS>ATOM
      1 C          13.2608   41.9383    6.6538 C.2     1  UNL1        0.3096
      2 N          12.0708   41.9093    5.8597 N.am    1  UNL1       -0.2468
      3 N          14.3066   42.8510    6.2965 N.am    1  UNL1       -0.2680
      4 O          13.3841   41.1739    7.6486 O.2     1  UNL1       -0.2521
      5 H          12.0211   42.5254    5.0934 H       1  UNL1        0.1584
      6 H          14.1452   43.4189    5.5087 H       1  UNL1        0.1564
      7 C          15.5634   43.0245    6.9656 C.ar    1  UNL1        0.0516
      8 C          16.4674   44.0344    6.6009 C.ar    1  UNL1        0.0147
      9 C          17.6834   44.1728    7.2765 C.ar    1  UNL1        0.0013
     10 C          18.0042   43.3024    8.3215 C.ar    1  UNL1        0.0001
     11 C          17.1090   42.2945    8.6900 C.ar    1  UNL1        0.0013
     12 C          15.8933   42.1573    8.0134 C.ar    1  UNL1        0.0147
     13 C           8.8150   40.0024    6.3650 C.ar    1  UNL1        0.1123
     14 C          10.9475   41.0541    6.0931 C.ar    1  UNL1        0.1889
     15 N           9.8526   39.1788    6.6309 N.ar    1  UNL1       -0.1440
     16 N          11.0401   39.7637    6.4836 N.ar    1  UNL1       -0.1256
     17 S           9.3475   41.5366    5.9061 S.2     1  UNL1       -0.0347
     18 C           7.3897   39.5644    6.4293 C.3     1  UNL1        0.0545
     19 C           6.4971   40.6609    6.9961 C.3     1  UNL1        0.0069
     20 C           6.8995   41.0316    8.4186 C.3     1  UNL1        0.0004
     21 C           6.6452   42.5044    8.7013 C.3     1  UNL1        0.0000
     22 C           7.7773   44.6889    8.9631 C.3     1  UNL1        0.0000
     23 C           7.9290   43.1916    9.1263 C.3     1  UNL1        0.0000
@<TRIPOS>BOND
     1    22    23    1
     2    23    21    1
     3    21    20    1
     4    20    19    1
     5    19    18    1
     6    18    13    1
     7    13    17   ar
     8    14     2    1
     9    14    17   ar
    10     1     3   am
    11     8     9   ar
    12    10    11   ar
    13    12     7   ar
    14    15    16   ar
    15     2     1   am
    16     3     7    1
    17    13    15   ar
    18    14    16   ar
    19     1     4    2
    20     7     8   ar
    21     9    10   ar
    22    11    12   ar
    23     2     5    1
    24     3     6    1
@<TRIPOS>MOLECULE
MolPort-001-895-901 6783020 CSSS00160246305 PubChem-1950138 ZINC000006783020 ZINC06783020
 23 24 0 0 0
SMALL
GASTEIGER

@<TRIPOS>ATOM
      1 C           6.1517   40.9824    7.9324 C.2     1  UNL1        0.3096
      2 N           6.5314   40.8176    6.5627 N.am    1  UNL1       -0.2468
      3 N           4.7575   41.0410    8.2597 N.am    1  UNL1       -0.2680
      4 O           7.0297   41.0741    8.8324 O.2     1  UNL1       -0.2521
      5 H           5.8098   40.7502    5.8963 H       1  UNL1        0.1584
      6 H           4.1254   40.9631    7.5089 H       1  UNL1        0.1564
      7 C           4.1859   41.2010    9.5654 C.ar    1  UNL1        0.0516
      8 C           4.4490   40.2993   10.6085 C.ar    1  UNL1        0.0147
      9 C           3.8736   40.4881   11.8684 C.ar    1  UNL1        0.0013
     10 C           3.0310   41.5797   12.0944 C.ar    1  UNL1        0.0001
     11 C           2.7645   42.4815   11.0606 C.ar    1  UNL1        0.0013
     12 C           3.3407   42.2914    9.8010 C.ar    1  UNL1        0.0147
     13 C          10.2333   40.8683    5.6764 C.ar    1  UNL1        0.1123
     14 C           7.8787   40.7432    6.0864 C.ar    1  UNL1        0.1889
     15 N           9.5625   40.1844    4.7235 N.ar    1  UNL1       -0.1440
     16 N           8.2514   40.1171    4.9484 N.ar    1  UNL1       -0.1256
     17 S           9.1937   41.4224    6.8848 S.2     1  UNL1       -0.0347
     18 C          11.7146   41.0495    5.6591 C.3     1  UNL1        0.0545
     19 C          12.1725   41.9844    6.7712 C.3     1  UNL1        0.0069
     20 C          13.6902   41.9889    6.9101 C.3     1  UNL1        0.0004
     21 C          14.3117   43.1636    6.1701 C.3     1  UNL1        0.0000
     22 C          16.5869   44.1178    5.9830 C.3     1  UNL1        0.0000
     23 C          15.4920   43.7147    6.9474 C.3     1  UNL1        0.0000
@<TRIPOS>BOND
     1    22    23    1
     2    23    21    1
     3    21    20    1
     4    20    19    1
     5    19    18    1
     6    18    13    1
     7    13    17   ar
     8    14     2    1
     9    14    17   ar
    10     1     3   am
    11     8     9   ar
    12    10    11   ar
    13    12     7   ar
    14    15    16   ar
    15     2     1   am
    16     3     7    1
    17    13    15   ar
    18    14    16   ar
    19     1     4    2
    20     7     8   ar
    21     9    10   ar
    22    11    12   ar
    23     2     5    1
    24     3     6    1
@<TRIPOS>MOLECULE
MolPort-001-895-901 6783020 CSSS00160246305 PubChem-1950138 ZINC000006783020 ZINC06783020
 23 24 0 0 0
SMALL
GASTEIGER

@<TRIPOS>ATOM
      1 C          13.0658   42.1093    6.4064 C.2     1  UNL1        0.3096
      2 N          12.0713   42.2535    5.3877 N.am    1  UNL1       -0.2468
      3 N          14.2851   42.8537    6.2904 N.am    1  UNL1       -0.2680
      4 O          12.8701   41.3410    7.3864 O.2     1  UNL1       -0.2521
      5 H          12.2697   42.8655    4.6425 H       1  UNL1        0.1584
      6 H          14.3728   43.4347    5.5004 H       1  UNL1        0.1564
      7 C          15.3910   42.8417    7.2037 C.ar    1  UNL1        0.0516
      8 C          15.6618   41.7396    8.0299 C.ar    1  UNL1        0.0147
      9 C          16.7493   41.7644    8.9078 C.ar    1  UNL1        0.0013
     10 C          17.5738   42.8911    8.9661 C.ar    1  UNL1        0.0001
     11 C          17.3102   43.9920    8.1466 C.ar    1  UNL1        0.0013
     12 C          16.2222   43.9658    7.2690 C.ar    1  UNL1        0.0147
     13 C           8.6138   40.6963    5.7240 C.ar    1  UNL1        0.1123
     14 C          10.8106   41.5768    5.3681 C.ar    1  UNL1        0.1889
     15 N           9.2230   40.1826    4.6328 N.ar    1  UNL1       -0.1440
     16 N          10.4471   40.6689    4.4355 N.ar    1  UNL1       -0.1256
     17 S           9.5966   41.8239    6.5053 S.2     1  UNL1       -0.0347
     18 C           7.2256   40.3291    6.1309 C.3     1  UNL1        0.0545
     19 C           7.1631   39.9397    7.6022 C.3     1  UNL1        0.0069
     20 C           8.5456   39.6143    8.1550 C.3     1  UNL1        0.0004
     21 C           9.0124   38.2375    7.7074 C.3     1  UNL1        0.0000
     22 C          11.2340   38.7761    8.6542 C.3     1  UNL1        0.0000
     23 C          10.1312   37.7404    8.6030 C.3     1  UNL1        0.0000
@<TRIPOS>BOND
     1    22    23    1
     2    23    21    1
     3    21    20    1
     4    20    19    1
     5    19    18    1
     6    18    13    1
     7    13    17   ar
     8    14     2    1
     9    14    17   ar
    10     1     3   am
    11     8     9   ar
    12    10    11   ar
    13    12     7   ar
    14    15    16   ar
    15     2     1   am
    16     3     7    1
    17    13    15   ar
    18    14    16   ar
    19     1     4    2
    20     7     8   ar
    21     9    10   ar
    22    11    12   ar
    23     2     5    1
    24     3     6    1
@<TRIPOS>MOLECULE
MolPort-001-895-901 6783020 CSSS00160246305 PubChem-1950138 ZINC000006783020 ZINC06783020
 23 24 0 0 0
SMALL
GASTEIGER

@<TRIPOS>ATOM
      1 C           8.0892   41.7195   10.2649 C.2     1  UNL1        0.3096
      2 N           9.3489   42.0894   10.8340 N.am    1  UNL1       -0.2468
      3 N           6.8936   42.3050   10.7960 N.am    1  UNL1       -0.2680
      4 O           8.0353   40.8934    9.3141 O.2     1  UNL1       -0.2521
      5 H           9.3398   42.7384   11.5742 H       1  UNL1        0.1584
      6 H           7.0074   42.9421   11.5379 H       1  UNL1        0.1564
      7 C           5.5489   42.0608   10.3608 C.ar    1  UNL1        0.0516
      8 C           4.8610   40.8837   10.6945 C.ar    1  UNL1        0.0147
      9 C           3.5506   40.6808   10.2520 C.ar    1  UNL1        0.0013
     10 C           2.9188   41.6534    9.4725 C.ar    1  UNL1        0.0001
     11 C           3.5975   42.8277    9.1362 C.ar    1  UNL1        0.0013
     12 C           4.9081   43.0292    9.5796 C.ar    1  UNL1        0.0147
     13 C          12.7053   41.0686    9.3558 C.ar    1  UNL1        0.1123
     14 C          10.6209   41.5890   10.4104 C.ar    1  UNL1        0.1889
     15 N          12.4631   40.3205   10.4546 N.ar    1  UNL1       -0.1440
     16 N          11.3017   40.6064   11.0406 N.ar    1  UNL1       -0.1256
     17 S          11.4531   42.1623    9.0663 S.2     1  UNL1       -0.0347
     18 C          13.9564   40.9526    8.5505 C.3     1  UNL1        0.0545
     19 C          13.9056   41.8418    7.3148 C.3     1  UNL1        0.0069
     20 C          15.1747   42.6733    7.1701 C.3     1  UNL1        0.0004
     21 C          15.0107   43.7574    6.1158 C.3     1  UNL1        0.0000
     22 C          17.4659   43.8922    5.8406 C.3     1  UNL1        0.0000
     23 C          16.2090   44.6875    6.1216 C.3     1  UNL1        0.0000
@<TRIPOS>BOND
     1    22    23    1
     2    23    21    1
     3    21    20    1
     4    20    19    1
     5    19    18    1
     6    18    13    1
     7    13    17   ar
     8    14     2    1
     9    14    17   ar
    10     1     3   am
    11     8     9   ar
    12    10    11   ar
    13    12     7   ar
    14    15    16   ar
    15     2     1   am
    16     3     7    1
    17    13    15   ar
    18    14    16   ar
    19     1     4    2
    20     7     8   ar
    21     9    10   ar
    22    11    12   ar
    23     2     5    1
    24     3     6    1
