@<TRIPOS>MOLECULE
MolPort-010-852-375 41108824 ChemDiv-G952-3382 MCULE-5744960344 PubChem-52103599 ZINC000041108824
 26 29 0 0 0
SMALL
GASTEIGER

@<TRIPOS>ATOM
      1 N           7.7615   42.9979    9.6391 N.ar    1  UNL1       -0.1881
      2 N           8.3811   41.9539   10.1641 N.ar    1  UNL1       -0.1400
      3 N           7.7152   45.0996    8.9706 N.ar    1  UNL1       -0.1202
      4 N           6.5127   44.5578    8.7374 N.ar    1  UNL1       -0.1310
      5 C           9.6590   42.3139   10.4738 C.ar    1  UNL1        0.1879
      6 C           8.4364   44.1075    9.5198 C.ar    1  UNL1        0.2195
      7 C           6.5491   43.2619    9.1536 C.ar    1  UNL1        0.1639
      8 S          10.0071   43.9657   10.0813 S.2     1  UNL1       -0.0111
      9 C           5.4222   42.2868    9.0677 C.3     1  UNL1        0.0606
     10 C           4.0788   43.0248    9.1494 C.3     1  UNL1        0.0076
     11 C           2.9672   42.0833    9.6024 C.3     1  UNL1        0.0004
     12 C           3.2407   41.5235   11.0056 C.3     1  UNL1        0.0000
     13 C           4.7324   41.4446   11.3579 C.3     1  UNL1        0.0004
     14 C           5.5831   41.1758   10.1184 C.3     1  UNL1        0.0076
     15 N          10.5771   41.3891   11.0687 N.am    1  UNL1       -0.2627
     16 C          11.6525   40.7147   10.4058 C.2     1  UNL1        0.2279
     17 O          11.8633   40.8714    9.1745 O.2     1  UNL1       -0.2747
     18 H          10.4569   41.1984   12.0271 H       1  UNL1        0.1568
     19 C          12.5570   39.8292   11.1937 C.3     1  UNL1        0.0901
     20 C          13.8323   39.5246   10.4166 C.3     1  UNL1        0.0359
     21 C          13.9282   38.0770   10.0605 C.ar    1  UNL1       -0.0217
     22 C          14.7358   37.6575    8.9954 C.ar    1  UNL1       -0.0043
     23 C          14.8123   36.3006    8.6667 C.ar    1  UNL1       -0.0003
     24 C          14.0796   35.3616    9.3992 C.ar    1  UNL1       -0.0000
     25 C          13.2686   35.7793   10.4587 C.ar    1  UNL1       -0.0003
     26 C          13.1916   37.1361   10.7878 C.ar    1  UNL1       -0.0043
@<TRIPOS>BOND
     1     1     2   ar
     2     3     4   ar
     3    15    16   am
     4     5     8   ar
     5     5    15    1
     6     6     8   ar
     7     6     1   ar
     8     7     1   ar
     9     9     7    1
    10     9    10    1
    11    10    11    1
    12    11    12    1
    13    12    13    1
    14    13    14    1
    15    14     9    1
    16    19    16    1
    17    19    20    1
    18    20    21    1
    19    22    23   ar
    20    24    25   ar
    21    26    21   ar
    22     5     2   ar
    23     6     3   ar
    24     7     4   ar
    25    16    17    2
    26    21    22   ar
    27    23    24   ar
    28    25    26   ar
    29    15    18    1
@<TRIPOS>MOLECULE
MolPort-010-852-375 41108824 ChemDiv-G952-3382 MCULE-5744960344 PubChem-52103599 ZINC000041108824
 26 29 0 0 0
SMALL
GASTEIGER

@<TRIPOS>ATOM
      1 N           7.7261   43.0719    9.5256 N.ar    1  UNL1       -0.1881
      2 N           8.4884   42.0803    9.9554 N.ar    1  UNL1       -0.1400
      3 N           7.4157   45.1778    8.9466 N.ar    1  UNL1       -0.1202
      4 N           6.2564   44.5246    8.7936 N.ar    1  UNL1       -0.1310
      5 C           9.7470   42.5580   10.1711 C.ar    1  UNL1        0.1879
      6 C           8.2758   44.2473    9.3941 C.ar    1  UNL1        0.2195
      7 C           6.4560   43.2268    9.1539 C.ar    1  UNL1        0.1639
      8 S           9.8958   44.2477    9.8163 S.2     1  UNL1       -0.0111
      9 C           5.4270   42.1458    9.1240 C.3     1  UNL1        0.0606
     10 C           4.0212   42.7578    9.0510 C.3     1  UNL1        0.0076
     11 C           2.9713   41.7711    9.5527 C.3     1  UNL1        0.0004
     12 C           3.2065   41.3984   11.0234 C.3     1  UNL1        0.0000
     13 C           4.6749   41.5006   11.4581 C.3     1  UNL1        0.0004
     14 C           5.6205   41.1782   10.3031 C.3     1  UNL1        0.0076
     15 N          10.7997   41.7127   10.6503 N.am    1  UNL1       -0.2627
     16 C          11.4692   40.6867    9.9087 C.2     1  UNL1        0.2279
     17 O          11.1425   40.4169    8.7231 O.2     1  UNL1       -0.2747
     18 H          11.0914   41.8507   11.5804 H       1  UNL1        0.1568
     19 C          12.5928   39.9401   10.5435 C.3     1  UNL1        0.0901
     20 C          13.4905   39.3068    9.4871 C.3     1  UNL1        0.0359
     21 C          14.7368   40.1023    9.2742 C.ar    1  UNL1       -0.0217
     22 C          15.9110   39.7866    9.9702 C.ar    1  UNL1       -0.0043
     23 C          17.0697   40.5427    9.7681 C.ar    1  UNL1       -0.0003
     24 C          17.0560   41.6171    8.8733 C.ar    1  UNL1       -0.0000
     25 C          15.8834   41.9371    8.1823 C.ar    1  UNL1       -0.0003
     26 C          14.7244   41.1815    8.3841 C.ar    1  UNL1       -0.0043
@<TRIPOS>BOND
     1     1     2   ar
     2     3     4   ar
     3    15    16   am
     4     5     8   ar
     5     5    15    1
     6     6     8   ar
     7     6     1   ar
     8     7     1   ar
     9     9     7    1
    10     9    10    1
    11    10    11    1
    12    11    12    1
    13    12    13    1
    14    13    14    1
    15    14     9    1
    16    19    16    1
    17    19    20    1
    18    20    21    1
    19    22    23   ar
    20    24    25   ar
    21    26    21   ar
    22     5     2   ar
    23     6     3   ar
    24     7     4   ar
    25    16    17    2
    26    21    22   ar
    27    23    24   ar
    28    25    26   ar
    29    15    18    1
@<TRIPOS>MOLECULE
MolPort-010-852-375 41108824 ChemDiv-G952-3382 MCULE-5744960344 PubChem-52103599 ZINC000041108824
 26 29 0 0 0
SMALL
GASTEIGER

@<TRIPOS>ATOM
      1 N          15.2598   41.8034    8.0333 N.ar    1  UNL1       -0.1881
      2 N          13.9779   41.5762    7.7999 N.ar    1  UNL1       -0.1400
      3 N          17.1616   42.8375    7.6092 N.ar    1  UNL1       -0.1202
      4 N          17.3598   41.9961    8.6322 N.ar    1  UNL1       -0.1310
      5 C          13.5755   42.3655    6.7636 C.ar    1  UNL1        0.1879
      6 C          15.8674   42.6804    7.2832 C.ar    1  UNL1        0.2195
      7 C          16.1825   41.3613    8.8868 C.ar    1  UNL1        0.1639
      8 S          14.8515   43.3572    6.1377 S.2     1  UNL1       -0.0111
      9 C          15.9532   40.3462    9.9570 C.3     1  UNL1        0.0606
     10 C          17.1874   39.4452   10.1024 C.3     1  UNL1        0.0076
     11 C          16.8177   38.1169   10.7554 C.3     1  UNL1        0.0004
     12 C          15.8066   37.3341    9.9056 C.3     1  UNL1        0.0000
     13 C          14.9131   38.2262    9.0330 C.3     1  UNL1        0.0004
     14 C          14.6487   39.5731    9.7026 C.3     1  UNL1        0.0076
     15 N          12.2295   42.3347    6.2742 N.am    1  UNL1       -0.2627
     16 C          11.3909   41.1787    6.1673 C.2     1  UNL1        0.2279
     17 O          11.8094   40.0348    6.4857 O.2     1  UNL1       -0.2747
     18 H          11.8432   43.1921    5.9828 H       1  UNL1        0.1568
     19 C           9.9859   41.3356    5.6940 C.3     1  UNL1        0.0901
     20 C           9.1026   40.2158    6.2315 C.3     1  UNL1        0.0359
     21 C           8.2428   40.6852    7.3592 C.ar    1  UNL1       -0.0217
     22 C           6.8535   40.7788    7.2046 C.ar    1  UNL1       -0.0043
     23 C           6.0594   41.2262    8.2649 C.ar    1  UNL1       -0.0003
     24 C           6.6523   41.5841    9.4797 C.ar    1  UNL1       -0.0000
     25 C           8.0393   41.4969    9.6336 C.ar    1  UNL1       -0.0003
     26 C           8.8338   41.0497    8.5736 C.ar    1  UNL1       -0.0043
@<TRIPOS>BOND
     1     1     2   ar
     2     3     4   ar
     3    15    16   am
     4     5     8   ar
     5     5    15    1
     6     6     8   ar
     7     6     1   ar
     8     7     1   ar
     9     9     7    1
    10     9    10    1
    11    10    11    1
    12    11    12    1
    13    12    13    1
    14    13    14    1
    15    14     9    1
    16    19    16    1
    17    19    20    1
    18    20    21    1
    19    22    23   ar
    20    24    25   ar
    21    26    21   ar
    22     5     2   ar
    23     6     3   ar
    24     7     4   ar
    25    16    17    2
    26    21    22   ar
    27    23    24   ar
    28    25    26   ar
    29    15    18    1
@<TRIPOS>MOLECULE
MolPort-010-852-375 41108824 ChemDiv-G952-3382 MCULE-5744960344 PubChem-52103599 ZINC000041108824
 26 29 0 0 0
SMALL
GASTEIGER

@<TRIPOS>ATOM
      1 N          13.6199   41.7454    7.3572 N.ar    1  UNL1       -0.1881
      2 N          13.8627   40.9116    8.3548 N.ar    1  UNL1       -0.1400
      3 N          14.2397   43.3218    5.9440 N.ar    1  UNL1       -0.1202
      4 N          12.9602   43.0135    5.6951 N.ar    1  UNL1       -0.1310
      5 C          15.1548   41.0756    8.7574 C.ar    1  UNL1        0.1879
      6 C          14.5919   42.5213    6.9643 C.ar    1  UNL1        0.2195
      7 C          12.5853   42.0414    6.5717 C.ar    1  UNL1        0.1639
      8 S          15.9959   42.2854    7.8450 S.2     1  UNL1       -0.0111
      9 C          11.2401   41.3974    6.6359 C.3     1  UNL1        0.0606
     10 C          11.3803   39.9221    7.0360 C.3     1  UNL1        0.0076
     11 C          10.1581   39.1210    6.5983 C.3     1  UNL1        0.0004
     12 C           9.9880   39.1425    5.0726 C.3     1  UNL1        0.0000
     13 C          10.5714   40.3952    4.4047 C.3     1  UNL1        0.0004
     14 C          10.4712   41.6121    5.3219 C.3     1  UNL1        0.0076
     15 N          15.7096   40.3098    9.8335 N.am    1  UNL1       -0.2627
     16 C          17.0848   39.9445    9.9951 C.2     1  UNL1        0.2279
     17 O          17.9514   40.2622    9.1388 O.2     1  UNL1       -0.2747
     18 H          15.0842   40.0049   10.5300 H       1  UNL1        0.1568
     19 C          17.5042   39.1952   11.2139 C.3     1  UNL1        0.0901
     20 C          17.4225   37.6909   10.9826 C.3     1  UNL1        0.0359
     21 C          16.0261   37.2547   10.6809 C.ar    1  UNL1       -0.0217
     22 C          15.7114   36.6787    9.4431 C.ar    1  UNL1       -0.0043
     23 C          14.3993   36.2807    9.1692 C.ar    1  UNL1       -0.0003
     24 C          13.3993   36.4608   10.1298 C.ar    1  UNL1       -0.0000
     25 C          13.7105   37.0409   11.3633 C.ar    1  UNL1       -0.0003
     26 C          15.0224   37.4392   11.6377 C.ar    1  UNL1       -0.0043
@<TRIPOS>BOND
     1     1     2   ar
     2     3     4   ar
     3    15    16   am
     4     5     8   ar
     5     5    15    1
     6     6     8   ar
     7     6     1   ar
     8     7     1   ar
     9     9     7    1
    10     9    10    1
    11    10    11    1
    12    11    12    1
    13    12    13    1
    14    13    14    1
    15    14     9    1
    16    19    16    1
    17    19    20    1
    18    20    21    1
    19    22    23   ar
    20    24    25   ar
    21    26    21   ar
    22     5     2   ar
    23     6     3   ar
    24     7     4   ar
    25    16    17    2
    26    21    22   ar
    27    23    24   ar
    28    25    26   ar
    29    15    18    1
@<TRIPOS>MOLECULE
MolPort-010-852-375 41108824 ChemDiv-G952-3382 MCULE-5744960344 PubChem-52103599 ZINC000041108824
 26 29 0 0 0
SMALL
GASTEIGER

@<TRIPOS>ATOM
      1 N           5.2524   43.2947    8.9597 N.ar    1  UNL1       -0.1881
      2 N           6.1906   42.4439    9.3408 N.ar    1  UNL1       -0.1400
      3 N           4.5730   45.0676    7.8365 N.ar    1  UNL1       -0.1202
      4 N           3.5182   44.5457    8.4762 N.ar    1  UNL1       -0.1310
      5 C           7.3737   42.8146    8.7736 C.ar    1  UNL1        0.1879
      6 C           5.6019   44.2681    8.1652 C.ar    1  UNL1        0.2195
      7 C           3.9459   43.4534    9.1676 C.ar    1  UNL1        0.1639
      8 S           7.2315   44.2299    7.7836 S.2     1  UNL1       -0.0111
      9 C           3.0913   42.5654   10.0099 C.3     1  UNL1        0.0606
     10 C           3.5818   42.5863   11.4642 C.3     1  UNL1        0.0076
     11 C           3.1200   41.3396   12.2124 C.3     1  UNL1        0.0004
     12 C           3.6892   40.0611   11.5808 C.3     1  UNL1        0.0000
     13 C           3.9856   40.1937   10.0808 C.3     1  UNL1        0.0004
     14 C           3.0105   41.1546    9.4040 C.3     1  UNL1        0.0076
     15 N           8.5822   42.0827    9.0099 N.am    1  UNL1       -0.2627
     16 C           8.9310   40.8139    8.4447 C.2     1  UNL1        0.2279
     17 O           8.1430   40.1998    7.6785 O.2     1  UNL1       -0.2747
     18 H           9.2371   42.4920    9.6205 H       1  UNL1        0.1568
     19 C          10.2641   40.2195    8.7484 C.3     1  UNL1        0.0901
     20 C          11.0040   41.0477    9.7922 C.3     1  UNL1        0.0359
     21 C          12.4047   40.5662    9.9862 C.ar    1  UNL1       -0.0217
     22 C          13.4011   40.8786    9.0522 C.ar    1  UNL1       -0.0043
     23 C          14.7072   40.4164    9.2405 C.ar    1  UNL1       -0.0003
     24 C          15.0189   39.6388   10.3601 C.ar    1  UNL1       -0.0000
     25 C          14.0243   39.3213   11.2900 C.ar    1  UNL1       -0.0003
     26 C          12.7180   39.7830   11.1021 C.ar    1  UNL1       -0.0043
@<TRIPOS>BOND
     1     1     2   ar
     2     3     4   ar
     3    15    16   am
     4     5     8   ar
     5     5    15    1
     6     6     8   ar
     7     6     1   ar
     8     7     1   ar
     9     9     7    1
    10     9    10    1
    11    10    11    1
    12    11    12    1
    13    12    13    1
    14    13    14    1
    15    14     9    1
    16    19    16    1
    17    19    20    1
    18    20    21    1
    19    22    23   ar
    20    24    25   ar
    21    26    21   ar
    22     5     2   ar
    23     6     3   ar
    24     7     4   ar
    25    16    17    2
    26    21    22   ar
    27    23    24   ar
    28    25    26   ar
    29    15    18    1
@<TRIPOS>MOLECULE
MolPort-010-852-375 41108824 ChemDiv-G952-3382 MCULE-5744960344 PubChem-52103599 ZINC000041108824
 26 29 0 0 0
SMALL
GASTEIGER

@<TRIPOS>ATOM
      1 N           5.9264   43.1665    8.3280 N.ar    1  UNL1       -0.1881
      2 N           6.9445   42.3260    8.4070 N.ar    1  UNL1       -0.1400
      3 N           4.8054   44.7759    7.3182 N.ar    1  UNL1       -0.1202
      4 N           4.1448   44.4395    8.4337 N.ar    1  UNL1       -0.1310
      5 C           7.7537   42.5164    7.3265 C.ar    1  UNL1        0.1879
      6 C           5.8815   43.9710    7.3024 C.ar    1  UNL1        0.2195
      7 C           4.8433   43.4473    9.0514 C.ar    1  UNL1        0.1639
      8 S           7.1771   43.7581    6.2639 S.2     1  UNL1       -0.0111
      9 C           4.4549   42.7697   10.3235 C.3     1  UNL1        0.0606
     10 C           5.4833   41.6873   10.6798 C.3     1  UNL1        0.0076
     11 C           4.8765   40.6472   11.6164 C.3     1  UNL1        0.0004
     12 C           3.6928   39.9220   10.9607 C.3     1  UNL1        0.0000
     13 C           2.9659   40.7612    9.9010 C.3     1  UNL1        0.0004
     14 C           3.0105   42.2488   10.2431 C.3     1  UNL1        0.0076
     15 N           8.9498   41.7505    7.1391 N.am    1  UNL1       -0.2627
     16 C           9.2209   40.8495    6.0595 C.2     1  UNL1        0.2279
     17 O           8.3672   40.6292    5.1607 O.2     1  UNL1       -0.2747
     18 H           9.6543   41.8537    7.8190 H       1  UNL1        0.1568
     19 C          10.5499   40.1780    5.9834 C.3     1  UNL1        0.0901
     20 C          11.2655   40.2341    7.3279 C.3     1  UNL1        0.0359
     21 C          12.5266   41.0308    7.2483 C.ar    1  UNL1       -0.0217
     22 C          13.5954   40.7611    8.1130 C.ar    1  UNL1       -0.0043
     23 C          14.7683   41.5180    8.0340 C.ar    1  UNL1       -0.0003
     24 C          14.8738   42.5476    7.0937 C.ar    1  UNL1       -0.0000
     25 C          13.8058   42.8219    6.2340 C.ar    1  UNL1       -0.0003
     26 C          12.6326   42.0653    6.3126 C.ar    1  UNL1       -0.0043
@<TRIPOS>BOND
     1     1     2   ar
     2     3     4   ar
     3    15    16   am
     4     5     8   ar
     5     5    15    1
     6     6     8   ar
     7     6     1   ar
     8     7     1   ar
     9     9     7    1
    10     9    10    1
    11    10    11    1
    12    11    12    1
    13    12    13    1
    14    13    14    1
    15    14     9    1
    16    19    16    1
    17    19    20    1
    18    20    21    1
    19    22    23   ar
    20    24    25   ar
    21    26    21   ar
    22     5     2   ar
    23     6     3   ar
    24     7     4   ar
    25    16    17    2
    26    21    22   ar
    27    23    24   ar
    28    25    26   ar
    29    15    18    1
@<TRIPOS>MOLECULE
MolPort-010-852-375 41108824 ChemDiv-G952-3382 MCULE-5744960344 PubChem-52103599 ZINC000041108824
 26 29 0 0 0
SMALL
GASTEIGER

@<TRIPOS>ATOM
      1 N          12.6769   41.0097    9.4903 N.ar    1  UNL1       -0.1881
      2 N          11.7517   41.7305    8.8789 N.ar    1  UNL1       -0.1400
      3 N          13.3640   39.7273   11.1484 N.ar    1  UNL1       -0.1202
      4 N          14.3766   39.8754   10.2843 N.ar    1  UNL1       -0.1310
      5 C          10.6101   41.6992    9.6235 C.ar    1  UNL1        0.1879
      6 C          12.3546   40.4378   10.6172 C.ar    1  UNL1        0.2195
      7 C          13.9451   40.6686    9.2652 C.ar    1  UNL1        0.1639
      8 S          10.7731   40.7533   11.0664 S.2     1  UNL1       -0.0111
      9 C          14.7522   41.0792    8.0786 C.3     1  UNL1        0.0606
     10 C          15.9824   41.8794    8.5287 C.3     1  UNL1        0.0076
     11 C          16.5109   42.7500    7.3929 C.3     1  UNL1        0.0004
     12 C          15.4658   43.7793    6.9397 C.3     1  UNL1        0.0000
     13 C          14.0169   43.3322    7.1768 C.3     1  UNL1        0.0004
     14 C          13.8753   41.8167    7.0533 C.3     1  UNL1        0.0076
     15 N           9.4283   42.3993    9.2169 N.am    1  UNL1       -0.2627
     16 C           9.0954   43.7567    9.5294 C.2     1  UNL1        0.2279
     17 O           9.8457   44.4652   10.2506 O.2     1  UNL1       -0.2747
     18 H           8.7817   41.8983    8.6690 H       1  UNL1        0.1568
     19 C           7.8486   44.3517    8.9688 C.3     1  UNL1        0.0901
     20 C           7.1868   43.3977    7.9814 C.3     1  UNL1        0.0359
     21 C           5.8861   42.8800    8.5026 C.ar    1  UNL1       -0.0217
     22 C           5.7450   41.5305    8.8514 C.ar    1  UNL1       -0.0043
     23 C           4.5207   41.0555    9.3316 C.ar    1  UNL1       -0.0003
     24 C           3.4349   41.9272    9.4605 C.ar    1  UNL1       -0.0000
     25 C           3.5725   43.2729    9.1073 C.ar    1  UNL1       -0.0003
     26 C           4.7965   43.7484    8.6270 C.ar    1  UNL1       -0.0043
@<TRIPOS>BOND
     1     1     2   ar
     2     3     4   ar
     3    15    16   am
     4     5     8   ar
     5     5    15    1
     6     6     8   ar
     7     6     1   ar
     8     7     1   ar
     9     9     7    1
    10     9    10    1
    11    10    11    1
    12    11    12    1
    13    12    13    1
    14    13    14    1
    15    14     9    1
    16    19    16    1
    17    19    20    1
    18    20    21    1
    19    22    23   ar
    20    24    25   ar
    21    26    21   ar
    22     5     2   ar
    23     6     3   ar
    24     7     4   ar
    25    16    17    2
    26    21    22   ar
    27    23    24   ar
    28    25    26   ar
    29    15    18    1
@<TRIPOS>MOLECULE
MolPort-010-852-375 41108824 ChemDiv-G952-3382 MCULE-5744960344 PubChem-52103599 ZINC000041108824
 26 29 0 0 0
SMALL
GASTEIGER

@<TRIPOS>ATOM
      1 N           8.2731   41.6836   10.1686 N.ar    1  UNL1       -0.1881
      2 N           9.2417   41.6318    9.2695 N.ar    1  UNL1       -0.1400
      3 N           7.5328   41.5420   12.2418 N.ar    1  UNL1       -0.1202
      4 N           6.4977   41.8389   11.4453 N.ar    1  UNL1       -0.1310
      5 C          10.4118   41.3367    9.9038 C.ar    1  UNL1        0.1879
      6 C           8.5882   41.4588   11.4141 C.ar    1  UNL1        0.2195
      7 C           6.9624   41.9233   10.1683 C.ar    1  UNL1        0.1639
      8 S          10.2190   41.1388   11.6146 S.2     1  UNL1       -0.0111
      9 C           6.1441   42.2470    8.9625 C.3     1  UNL1        0.0606
     10 C           6.3154   43.7263    8.5905 C.3     1  UNL1        0.0076
     11 C           5.1384   44.2167    7.7529 C.3     1  UNL1        0.0004
     12 C           3.8159   44.1140    8.5259 C.3     1  UNL1        0.0000
     13 C           3.8080   43.0080    9.5899 C.3     1  UNL1        0.0004
     14 C           4.6798   41.8264    9.1703 C.3     1  UNL1        0.0076
     15 N          11.6440   41.2056    9.1848 N.am    1  UNL1       -0.2627
     16 C          11.8486   41.4771    7.7937 C.2     1  UNL1        0.2279
     17 O          10.8995   41.8431    7.0517 O.2     1  UNL1       -0.2747
     18 H          12.4266   40.8988    9.6973 H       1  UNL1        0.1568
     19 C          13.2175   41.3491    7.2171 C.3     1  UNL1        0.0901
     20 C          13.7905   42.7174    6.8670 C.3     1  UNL1        0.0359
     21 C          15.1971   42.8652    7.3476 C.ar    1  UNL1       -0.0217
     22 C          15.9655   43.9746    6.9714 C.ar    1  UNL1       -0.0043
     23 C          17.2834   44.0988    7.4216 C.ar    1  UNL1       -0.0003
     24 C          17.8367   43.1133    8.2450 C.ar    1  UNL1       -0.0000
     25 C          17.0730   42.0025    8.6164 C.ar    1  UNL1       -0.0003
     26 C          15.7551   41.8777    8.1665 C.ar    1  UNL1       -0.0043
@<TRIPOS>BOND
     1     1     2   ar
     2     3     4   ar
     3    15    16   am
     4     5     8   ar
     5     5    15    1
     6     6     8   ar
     7     6     1   ar
     8     7     1   ar
     9     9     7    1
    10     9    10    1
    11    10    11    1
    12    11    12    1
    13    12    13    1
    14    13    14    1
    15    14     9    1
    16    19    16    1
    17    19    20    1
    18    20    21    1
    19    22    23   ar
    20    24    25   ar
    21    26    21   ar
    22     5     2   ar
    23     6     3   ar
    24     7     4   ar
    25    16    17    2
    26    21    22   ar
    27    23    24   ar
    28    25    26   ar
    29    15    18    1
@<TRIPOS>MOLECULE
MolPort-010-852-375 41108824 ChemDiv-G952-3382 MCULE-5744960344 PubChem-52103599 ZINC000041108824
 26 29 0 0 0
SMALL
GASTEIGER

@<TRIPOS>ATOM
      1 N           7.8587   40.8105    6.7326 N.ar    1  UNL1       -0.1881
      2 N           9.0218   41.4367    6.7986 N.ar    1  UNL1       -0.1400
      3 N           6.5244   39.2673    5.8933 N.ar    1  UNL1       -0.1202
      4 N           5.8485   39.9416    6.8328 N.ar    1  UNL1       -0.1310
      5 C           9.8725   40.8760    5.8928 C.ar    1  UNL1        0.1879
      6 C           7.7415   39.8366    5.8730 C.ar    1  UNL1        0.2195
      7 C           6.6780   40.8923    7.3446 C.ar    1  UNL1        0.1639
      8 S           9.1472   39.5789    5.0012 S.2     1  UNL1       -0.0111
      9 C           6.3314   41.8606    8.4265 C.3     1  UNL1        0.0606
     10 C           4.9271   41.5634    8.9702 C.3     1  UNL1        0.0076
     11 C           4.3345   42.7944    9.6492 C.3     1  UNL1        0.0004
     12 C           4.1802   43.9613    8.6634 C.3     1  UNL1        0.0000
     13 C           5.1870   43.9275    7.5055 C.3     1  UNL1        0.0004
     14 C           6.5134   43.3077    7.9398 C.3     1  UNL1        0.0076
     15 N          11.2136   41.3514    5.7270 N.am    1  UNL1       -0.2627
     16 C          12.0311   41.9562    6.7354 C.2     1  UNL1        0.2279
     17 O          11.5955   42.1528    7.9002 O.2     1  UNL1       -0.2747
     18 H          11.6123   41.2527    4.8323 H       1  UNL1        0.1568
     19 C          13.4347   42.3375    6.4077 C.3     1  UNL1        0.0901
     20 C          14.3989   41.8315    7.4741 C.3     1  UNL1        0.0359
     21 C          15.6792   42.6011    7.4692 C.ar    1  UNL1       -0.0217
     22 C          16.7036   42.2852    8.3712 C.ar    1  UNL1       -0.0043
     23 C          17.8950   43.0171    8.3622 C.ar    1  UNL1       -0.0003
     24 C          18.0632   44.0677    7.4548 C.ar    1  UNL1       -0.0000
     25 C          17.0394   44.3880    6.5581 C.ar    1  UNL1       -0.0003
     26 C          15.8478   43.6566    6.5667 C.ar    1  UNL1       -0.0043
@<TRIPOS>BOND
     1     1     2   ar
     2     3     4   ar
     3    15    16   am
     4     5     8   ar
     5     5    15    1
     6     6     8   ar
     7     6     1   ar
     8     7     1   ar
     9     9     7    1
    10     9    10    1
    11    10    11    1
    12    11    12    1
    13    12    13    1
    14    13    14    1
    15    14     9    1
    16    19    16    1
    17    19    20    1
    18    20    21    1
    19    22    23   ar
    20    24    25   ar
    21    26    21   ar
    22     5     2   ar
    23     6     3   ar
    24     7     4   ar
    25    16    17    2
    26    21    22   ar
    27    23    24   ar
    28    25    26   ar
    29    15    18    1
@<TRIPOS>MOLECULE
MolPort-010-852-375 41108824 ChemDiv-G952-3382 MCULE-5744960344 PubChem-52103599 ZINC000041108824
 26 29 0 0 0
SMALL
GASTEIGER

@<TRIPOS>ATOM
      1 N           5.4474   43.0189    8.4886 N.ar    1  UNL1       -0.1881
      2 N           6.1643   41.9088    8.5428 N.ar    1  UNL1       -0.1400
      3 N           5.0317   45.0295    7.6817 N.ar    1  UNL1       -0.1202
      4 N           4.0896   44.7372    8.5877 N.ar    1  UNL1       -0.1310
      5 C           7.2000   42.0135    7.6624 C.ar    1  UNL1        0.1879
      6 C           5.8322   43.9503    7.6607 C.ar    1  UNL1        0.2195
      7 C           4.3538   43.4961    9.0816 C.ar    1  UNL1        0.1639
      8 S           7.2090   43.5223    6.8100 S.2     1  UNL1       -0.0111
      9 C           3.5443   42.7761   10.1085 C.3     1  UNL1        0.0606
     10 C           4.4512   42.2841   11.2450 C.3     1  UNL1        0.0076
     11 C           3.8015   41.1270   11.9976 C.3     1  UNL1        0.0004
     12 C           3.5643   39.9203   11.0784 C.3     1  UNL1        0.0000
     13 C           3.3760   40.2971    9.6026 C.3     1  UNL1        0.0004
     14 C           2.7072   41.6624    9.4581 C.3     1  UNL1        0.0076
     15 N           8.1593   40.9617    7.5021 N.am    1  UNL1       -0.2627
     16 C           8.3757   40.1825    6.3203 C.2     1  UNL1        0.2279
     17 O           7.6785   40.3544    5.2861 O.2     1  UNL1       -0.2747
     18 H           8.7251   40.7543    8.2807 H       1  UNL1        0.1568
     19 C           9.4652   39.1648    6.3045 C.3     1  UNL1        0.0901
     20 C           9.4373   38.3183    7.5717 C.3     1  UNL1        0.0359
     21 C          10.6823   38.4928    8.3785 C.ar    1  UNL1       -0.0217
     22 C          10.9854   37.6074    9.4210 C.ar    1  UNL1       -0.0043
     23 C          12.1501   37.7846   10.1741 C.ar    1  UNL1       -0.0003
     24 C          13.0116   38.8486    9.8891 C.ar    1  UNL1       -0.0000
     25 C          12.7074   39.7366    8.8528 C.ar    1  UNL1       -0.0003
     26 C          11.5428   39.5599    8.0995 C.ar    1  UNL1       -0.0043
@<TRIPOS>BOND
     1     1     2   ar
     2     3     4   ar
     3    15    16   am
     4     5     8   ar
     5     5    15    1
     6     6     8   ar
     7     6     1   ar
     8     7     1   ar
     9     9     7    1
    10     9    10    1
    11    10    11    1
    12    11    12    1
    13    12    13    1
    14    13    14    1
    15    14     9    1
    16    19    16    1
    17    19    20    1
    18    20    21    1
    19    22    23   ar
    20    24    25   ar
    21    26    21   ar
    22     5     2   ar
    23     6     3   ar
    24     7     4   ar
    25    16    17    2
    26    21    22   ar
    27    23    24   ar
    28    25    26   ar
    29    15    18    1
