@<TRIPOS>MOLECULE
MolPort-003-077-942 9599913 CSSS03437082921 MCULE-2999142374 PubChem-18561104 ZINC000009599913 ZINC09599913
 33 37 0 0 0
SMALL
GASTEIGER

@<TRIPOS>ATOM
      1 C           8.9347   43.5989   10.0783 C.ar    1  UNL1        0.1611
      2 C          10.4462   41.8194   10.6118 C.ar    1  UNL1        0.1885
      3 N           8.4009   42.6786   10.9102 N.ar    1  UNL1       -0.1331
      4 N           9.2404   41.6880   11.2047 N.ar    1  UNL1       -0.1248
      5 S          10.5183   43.2133    9.6602 S.2     1  UNL1       -0.0241
      6 C          12.6005   40.6366    9.8949 C.2     1  UNL1        0.2266
      7 N          11.4869   40.8500   10.7752 N.am    1  UNL1       -0.2628
      8 O          12.7385   41.3395    8.8569 O.2     1  UNL1       -0.2747
      9 H          11.4336   40.2723   11.5706 H       1  UNL1        0.1568
     10 C          13.5564   39.5053   10.1646 C.3     1  UNL1        0.0692
     11 C          13.0161   38.2252    9.5025 C.3     1  UNL1        0.0086
     12 C          13.9702   37.0473    9.7609 C.3     1  UNL1        0.0005
     13 C          14.0972   36.8213   11.2759 C.3     1  UNL1        0.0000
     14 C          14.6509   38.0860   11.9496 C.3     1  UNL1        0.0005
     15 C          16.0331   38.4106   11.3592 C.3     1  UNL1        0.0000
     16 C          15.9145   38.6440    9.8455 C.3     1  UNL1        0.0005
     17 C          15.3539   37.3777    9.1796 C.3     1  UNL1        0.0000
     18 C          14.9544   39.8167    9.5879 C.3     1  UNL1        0.0086
     19 C          13.6990   39.2635   11.6820 C.3     1  UNL1        0.0086
     20 S           8.0414   45.0300    9.4783 S.3     1  UNL1       -0.0768
     21 C           7.5612   44.2268    7.9137 C.3     1  UNL1        0.1489
     22 C           6.3684   43.3597    8.1165 C.2     1  UNL1        0.2341
     23 N           6.5288   41.9444    8.2174 N.am    1  UNL1       -0.2997
     24 O           5.2246   43.8823    8.1818 O.2     1  UNL1       -0.2741
     25 H           7.4353   41.5768    8.3290 H       1  UNL1        0.1498
     26 C           5.4013   41.0246    8.1615 C.3     1  UNL1        0.1163
     27 F           2.3598   41.6153   12.8746 F       1  UNL1       -0.2042
     28 C           3.0895   41.4627   11.7452 C.ar    1  UNL1        0.1401
     29 C           2.4955   41.6812   10.4978 C.ar    1  UNL1        0.0294
     30 C           3.2469   41.5250    9.3310 C.ar    1  UNL1       -0.0003
     31 C           4.5917   41.1414    9.4090 C.ar    1  UNL1       -0.0024
     32 C           5.1870   40.9281   10.6574 C.ar    1  UNL1       -0.0003
     33 C           4.4345   41.0862   11.8257 C.ar    1  UNL1        0.0294
@<TRIPOS>BOND
     1    28    27    1
     2    29    30   ar
     3    31    32   ar
     4    26    31    1
     5    26    23    1
     6    21    22    1
     7    21    20    1
     8     1    20    1
     9     1     5   ar
    10     2     7    1
    11     2     5   ar
    12    10     6    1
    13    10    11    1
    14    12    11    1
    15    12    13    1
    16    14    13    1
    17    14    15    1
    18    14    19    1
    19    16    15    1
    20    16    17    1
    21    16    18    1
    22    17    12    1
    23    18    10    1
    24    19    10    1
    25    33    28   ar
    26    23    22   am
    27     3     4   ar
    28     7     6   am
    29    28    29   ar
    30    30    31   ar
    31    22    24    2
    32     1     3   ar
    33     2     4   ar
    34     6     8    2
    35    32    33   ar
    36    23    25    1
    37     7     9    1
@<TRIPOS>MOLECULE
MolPort-003-077-942 9599913 CSSS03437082921 MCULE-2999142374 PubChem-18561104 ZINC000009599913 ZINC09599913
 33 37 0 0 0
SMALL
GASTEIGER

@<TRIPOS>ATOM
      1 C           8.9702   43.5744    9.8101 C.ar    1  UNL1        0.1611
      2 C          10.5764   41.8767   10.3332 C.ar    1  UNL1        0.1885
      3 N           8.4298   42.5036   10.4308 N.ar    1  UNL1       -0.1331
      4 N           9.3224   41.5587   10.7193 N.ar    1  UNL1       -0.1248
      5 S          10.6279   43.3911    9.5864 S.2     1  UNL1       -0.0241
      6 C          12.1098   39.9507    9.6308 C.2     1  UNL1        0.2266
      7 N          11.6827   40.9887   10.5257 N.am    1  UNL1       -0.2628
      8 O          11.4960   39.7478    8.5480 O.2     1  UNL1       -0.2747
      9 H          12.2024   41.1011   11.3543 H       1  UNL1        0.1568
     10 C          13.2393   39.0399   10.0323 C.3     1  UNL1        0.0692
     11 C          13.6860   39.3968   11.4613 C.3     1  UNL1        0.0086
     12 C          14.8422   38.4842   11.9025 C.3     1  UNL1        0.0005
     13 C          16.0264   38.6655   10.9396 C.3     1  UNL1        0.0000
     14 C          15.6004   38.2974    9.5102 C.3     1  UNL1        0.0005
     15 C          15.1329   36.8328    9.4823 C.3     1  UNL1        0.0000
     16 C          13.9451   36.6437   10.4379 C.3     1  UNL1        0.0005
     17 C          14.3766   37.0201   11.8638 C.3     1  UNL1        0.0000
     18 C          12.7925   37.5623   10.0006 C.3     1  UNL1        0.0086
     19 C          14.4385   39.2060    9.0755 C.3     1  UNL1        0.0086
     20 S           8.0191   44.9919    9.2695 S.3     1  UNL1       -0.0768
     21 C           7.4536   44.1820    7.7373 C.3     1  UNL1        0.1489
     22 C           6.2539   43.3418    8.0028 C.2     1  UNL1        0.2341
     23 N           6.3998   41.9325    8.1810 N.am    1  UNL1       -0.2997
     24 O           5.1169   43.8808    8.0527 O.2     1  UNL1       -0.2741
     25 H           7.3035   41.5611    8.3019 H       1  UNL1        0.1498
     26 C           5.2615   41.0245    8.1904 C.3     1  UNL1        0.1163
     27 F           2.2742   41.5812   12.9422 F       1  UNL1       -0.2042
     28 C           2.9908   41.4586   11.8008 C.ar    1  UNL1        0.1401
     29 C           4.3435   41.1081   11.8624 C.ar    1  UNL1        0.0294
     30 C           5.0847   40.9802   10.6857 C.ar    1  UNL1       -0.0003
     31 C           4.4767   41.2112    9.4452 C.ar    1  UNL1       -0.0024
     32 C           3.1220   41.5565    9.3838 C.ar    1  UNL1       -0.0003
     33 C           2.3797   41.6829   10.5625 C.ar    1  UNL1        0.0294
@<TRIPOS>BOND
     1    28    27    1
     2    29    30   ar
     3    31    32   ar
     4    26    31    1
     5    26    23    1
     6    21    22    1
     7    21    20    1
     8     1    20    1
     9     1     5   ar
    10     2     7    1
    11     2     5   ar
    12    10     6    1
    13    10    11    1
    14    12    11    1
    15    12    13    1
    16    14    13    1
    17    14    15    1
    18    14    19    1
    19    16    15    1
    20    16    17    1
    21    16    18    1
    22    17    12    1
    23    18    10    1
    24    19    10    1
    25    33    28   ar
    26    23    22   am
    27     3     4   ar
    28     7     6   am
    29    28    29   ar
    30    30    31   ar
    31    22    24    2
    32     1     3   ar
    33     2     4   ar
    34     6     8    2
    35    32    33   ar
    36    23    25    1
    37     7     9    1
@<TRIPOS>MOLECULE
MolPort-003-077-942 9599913 CSSS03437082921 MCULE-2999142374 PubChem-18561104 ZINC000009599913 ZINC09599913
 33 37 0 0 0
SMALL
GASTEIGER

@<TRIPOS>ATOM
      1 C           4.4949   41.2676   10.1604 C.ar    1  UNL1        0.1611
      2 C           3.0868   41.7587   12.0345 C.ar    1  UNL1        0.1885
      3 N           4.4259   40.2569   11.0536 N.ar    1  UNL1       -0.1331
      4 N           3.6451   40.5310   12.0967 N.ar    1  UNL1       -0.1248
      5 S           3.5621   42.5838   10.6390 S.2     1  UNL1       -0.0241
      6 C           0.8207   42.4977   12.9686 C.2     1  UNL1        0.2266
      7 N           2.2333   42.2625   13.0676 N.am    1  UNL1       -0.2628
      8 O           0.2062   42.2557   11.8942 O.2     1  UNL1       -0.2747
      9 H           2.6574   42.4680   13.9320 H       1  UNL1        0.1568
     10 C           0.0877   43.1243   14.1246 C.3     1  UNL1        0.0692
     11 C           0.4425   42.3624   15.4140 C.3     1  UNL1        0.0086
     12 C          -0.2926   42.9772   16.6165 C.3     1  UNL1        0.0005
     13 C          -1.8090   42.8957   16.3790 C.3     1  UNL1        0.0000
     14 C          -2.1814   43.6657   15.1029 C.3     1  UNL1        0.0005
     15 C          -1.7625   45.1370   15.2585 C.3     1  UNL1        0.0000
     16 C          -0.2467   45.2283   15.4906 C.3     1  UNL1        0.0005
     17 C           0.1191   44.4505   16.7643 C.3     1  UNL1        0.0000
     18 C           0.4873   44.6064   14.2914 C.3     1  UNL1        0.0086
     19 C          -1.4380   43.0538   13.9040 C.3     1  UNL1        0.0086
     20 S           5.4879   41.2093    8.6716 S.3     1  UNL1       -0.0768
     21 C           7.0025   41.7764    9.5130 C.3     1  UNL1        0.1489
     22 C           8.2121   41.2931    8.7927 C.2     1  UNL1        0.2341
     23 N           9.4573   41.9711    8.9627 N.am    1  UNL1       -0.2997
     24 O           8.1224   40.2979    8.0264 O.2     1  UNL1       -0.2741
     25 H           9.5409   42.6351    9.6847 H       1  UNL1        0.1498
     26 C          10.6082   41.7165    8.1076 C.3     1  UNL1        0.1163
     27 F          14.1090   38.0118   10.5227 F       1  UNL1       -0.2042
     28 C          13.2611   38.8930    9.9431 C.ar    1  UNL1        0.1401
     29 C          12.7367   39.9508   10.6931 C.ar    1  UNL1        0.0294
     30 C          11.8622   40.8618   10.0967 C.ar    1  UNL1       -0.0003
     31 C          11.5034   40.7117    8.7511 C.ar    1  UNL1       -0.0024
     32 C          12.0326   39.6564    7.9998 C.ar    1  UNL1       -0.0003
     33 C          12.9096   38.7452    8.5970 C.ar    1  UNL1        0.0294
@<TRIPOS>BOND
     1    28    27    1
     2    29    30   ar
     3    31    32   ar
     4    26    31    1
     5    26    23    1
     6    21    22    1
     7    21    20    1
     8     1    20    1
     9     1     5   ar
    10     2     7    1
    11     2     5   ar
    12    10     6    1
    13    10    11    1
    14    12    11    1
    15    12    13    1
    16    14    13    1
    17    14    15    1
    18    14    19    1
    19    16    15    1
    20    16    17    1
    21    16    18    1
    22    17    12    1
    23    18    10    1
    24    19    10    1
    25    33    28   ar
    26    23    22   am
    27     3     4   ar
    28     7     6   am
    29    28    29   ar
    30    30    31   ar
    31    22    24    2
    32     1     3   ar
    33     2     4   ar
    34     6     8    2
    35    32    33   ar
    36    23    25    1
    37     7     9    1
@<TRIPOS>MOLECULE
MolPort-003-077-942 9599913 CSSS03437082921 MCULE-2999142374 PubChem-18561104 ZINC000009599913 ZINC09599913
 33 37 0 0 0
SMALL
GASTEIGER

@<TRIPOS>ATOM
      1 C           7.6703   41.4729   10.1188 C.ar    1  UNL1        0.1611
      2 C           9.6546   42.0743    8.9201 C.ar    1  UNL1        0.1885
      3 N           7.8486   40.7537    8.9896 N.ar    1  UNL1       -0.1331
      4 N           8.9504   41.0898    8.3220 N.ar    1  UNL1       -0.1248
      5 S           8.9086   42.5894   10.3456 S.2     1  UNL1       -0.0241
      6 C          11.7888   41.9003    7.5169 C.2     1  UNL1        0.2266
      7 N          10.8590   42.6030    8.3550 N.am    1  UNL1       -0.2628
      8 O          11.5845   40.6954    7.2057 O.2     1  UNL1       -0.2747
      9 H          11.0707   43.5420    8.5617 H       1  UNL1        0.1568
     10 C          13.0611   42.5790    7.0845 C.3     1  UNL1        0.0692
     11 C          14.2562   41.6795    7.4472 C.3     1  UNL1        0.0086
     12 C          15.5745   42.3455    7.0198 C.3     1  UNL1        0.0005
     13 C          15.7172   43.6953    7.7408 C.3     1  UNL1        0.0000
     14 C          14.5390   44.6112    7.3760 C.3     1  UNL1        0.0005
     15 C          14.5258   44.8381    5.8553 C.3     1  UNL1        0.0000
     16 C          14.3775   43.4941    5.1263 C.3     1  UNL1        0.0005
     17 C          15.5553   42.5812    5.5013 C.3     1  UNL1        0.0000
     18 C          13.0629   42.8253    5.5603 C.3     1  UNL1        0.0086
     19 C          13.2219   43.9383    7.7970 C.3     1  UNL1        0.0086
     20 S           6.2659   41.2721   11.2111 S.3     1  UNL1       -0.0768
     21 C           5.3190   42.6272   10.4426 C.3     1  UNL1        0.1489
     22 C           3.8578   42.3572   10.5281 C.2     1  UNL1        0.2341
     23 N           3.1906   42.4540   11.7869 N.am    1  UNL1       -0.2997
     24 O           3.2248   42.0300    9.4897 O.2     1  UNL1       -0.2741
     25 H           3.6648   42.8675   12.5441 H       1  UNL1        0.1498
     26 C           1.8349   41.9639   11.9921 C.3     1  UNL1        0.1163
     27 F          -0.5029   44.3168   16.5540 F       1  UNL1       -0.2042
     28 C           0.0680   43.7540   15.4638 C.ar    1  UNL1        0.1401
     29 C          -0.0168   42.3714   15.2690 C.ar    1  UNL1        0.0294
     30 C           0.5710   41.7887   14.1441 C.ar    1  UNL1       -0.0003
     31 C           1.2524   42.5864   13.2161 C.ar    1  UNL1       -0.0024
     32 C           1.3323   43.9702   13.4087 C.ar    1  UNL1       -0.0003
     33 C           0.7421   44.5536   14.5345 C.ar    1  UNL1        0.0294
@<TRIPOS>BOND
     1    28    27    1
     2    29    30   ar
     3    31    32   ar
     4    26    31    1
     5    26    23    1
     6    21    22    1
     7    21    20    1
     8     1    20    1
     9     1     5   ar
    10     2     7    1
    11     2     5   ar
    12    10     6    1
    13    10    11    1
    14    12    11    1
    15    12    13    1
    16    14    13    1
    17    14    15    1
    18    14    19    1
    19    16    15    1
    20    16    17    1
    21    16    18    1
    22    17    12    1
    23    18    10    1
    24    19    10    1
    25    33    28   ar
    26    23    22   am
    27     3     4   ar
    28     7     6   am
    29    28    29   ar
    30    30    31   ar
    31    22    24    2
    32     1     3   ar
    33     2     4   ar
    34     6     8    2
    35    32    33   ar
    36    23    25    1
    37     7     9    1
@<TRIPOS>MOLECULE
MolPort-003-077-942 9599913 CSSS03437082921 MCULE-2999142374 PubChem-18561104 ZINC000009599913 ZINC09599913
 33 37 0 0 0
SMALL
GASTEIGER

@<TRIPOS>ATOM
      1 C           4.0852   41.3226   10.0393 C.ar    1  UNL1        0.1611
      2 C           2.8848   41.6999   12.0770 C.ar    1  UNL1        0.1885
      3 N           4.2170   40.3151   10.9289 N.ar    1  UNL1       -0.1331
      4 N           3.5516   40.5260   12.0627 N.ar    1  UNL1       -0.1248
      5 S           3.1080   42.5550   10.6374 S.2     1  UNL1       -0.0241
      6 C           0.7215   42.4276   13.2366 C.2     1  UNL1        0.2266
      7 N           2.1262   42.1331   13.2112 N.am    1  UNL1       -0.2628
      8 O           0.0252   42.3117   12.1915 O.2     1  UNL1       -0.2747
      9 H           2.6168   42.2397   14.0581 H       1  UNL1        0.1568
     10 C           0.0967   42.9670   14.4956 C.3     1  UNL1        0.0692
     11 C          -0.4964   44.3570   14.2040 C.3     1  UNL1        0.0086
     12 C          -1.1423   44.9384   15.4725 C.3     1  UNL1        0.0005
     13 C          -0.0764   45.0612   16.5730 C.3     1  UNL1        0.0000
     14 C           0.5142   43.6783   16.8870 C.3     1  UNL1        0.0005
     15 C          -0.6104   42.7429   17.3608 C.3     1  UNL1        0.0000
     16 C          -1.6778   42.6095   16.2641 C.3     1  UNL1        0.0005
     17 C          -2.2590   43.9971   15.9508 C.3     1  UNL1        0.0000
     18 C          -1.0294   42.0355   14.9939 C.3     1  UNL1        0.0086
     19 C           1.1516   43.0962   15.6143 C.3     1  UNL1        0.0086
     20 S           4.8857   41.3426    8.4378 S.3     1  UNL1       -0.0768
     21 C           5.0958   43.1534    8.4290 C.3     1  UNL1        0.1489
     22 C           6.5190   43.5152    8.6719 C.2     1  UNL1        0.2341
     23 N           7.5384   42.5268    8.5201 N.am    1  UNL1       -0.2997
     24 O           6.8101   44.6884    9.0249 O.2     1  UNL1       -0.2741
     25 H           7.3095   41.6722    8.0881 H       1  UNL1        0.1498
     26 C           8.9039   42.7360    8.9805 C.3     1  UNL1        0.1163
     27 F           9.5081   40.7720   14.2332 F       1  UNL1       -0.2042
     28 C           9.3651   41.2331   12.9690 C.ar    1  UNL1        0.1401
     29 C           8.0955   41.5764   12.4926 C.ar    1  UNL1        0.0294
     30 C           7.9458   42.0533   11.1885 C.ar    1  UNL1       -0.0003
     31 C           9.0645   42.1795   10.3552 C.ar    1  UNL1       -0.0024
     32 C          10.3351   41.8410   10.8340 C.ar    1  UNL1       -0.0003
     33 C          10.4848   41.3650   12.1406 C.ar    1  UNL1        0.0294
@<TRIPOS>BOND
     1    28    27    1
     2    29    30   ar
     3    31    32   ar
     4    26    31    1
     5    26    23    1
     6    21    22    1
     7    21    20    1
     8     1    20    1
     9     1     5   ar
    10     2     7    1
    11     2     5   ar
    12    10     6    1
    13    10    11    1
    14    12    11    1
    15    12    13    1
    16    14    13    1
    17    14    15    1
    18    14    19    1
    19    16    15    1
    20    16    17    1
    21    16    18    1
    22    17    12    1
    23    18    10    1
    24    19    10    1
    25    33    28   ar
    26    23    22   am
    27     3     4   ar
    28     7     6   am
    29    28    29   ar
    30    30    31   ar
    31    22    24    2
    32     1     3   ar
    33     2     4   ar
    34     6     8    2
    35    32    33   ar
    36    23    25    1
    37     7     9    1
@<TRIPOS>MOLECULE
MolPort-003-077-942 9599913 CSSS03437082921 MCULE-2999142374 PubChem-18561104 ZINC000009599913 ZINC09599913
 33 37 0 0 0
SMALL
GASTEIGER

@<TRIPOS>ATOM
      1 C          15.3996   43.4752    6.6790 C.ar    1  UNL1        0.1611
      2 C          13.1361   42.8163    7.1008 C.ar    1  UNL1        0.1885
      3 N          15.3007   42.2893    7.3177 N.ar    1  UNL1       -0.1331
      4 N          14.0424   41.9243    7.5544 N.ar    1  UNL1       -0.1248
      5 S          13.8859   44.1420    6.3699 S.2     1  UNL1       -0.0241
      6 C          10.9834   41.4349    6.9915 C.2     1  UNL1        0.2266
      7 N          11.7275   42.6293    7.2752 N.am    1  UNL1       -0.2628
      8 O          11.5663   40.4099    6.5442 O.2     1  UNL1       -0.2747
      9 H          11.2184   43.3962    7.6245 H       1  UNL1        0.1568
     10 C           9.4854   41.4380    7.1412 C.3     1  UNL1        0.0692
     11 C           8.8513   41.9028    5.8180 C.3     1  UNL1        0.0086
     12 C           7.3184   41.9190    5.9376 C.3     1  UNL1        0.0005
     13 C           6.9083   42.8816    7.0635 C.3     1  UNL1        0.0000
     14 C           7.5209   42.4216    8.3951 C.3     1  UNL1        0.0005
     15 C           7.0201   41.0047    8.7204 C.3     1  UNL1        0.0000
     16 C           7.4309   40.0343    7.6026 C.3     1  UNL1        0.0005
     17 C           6.8203   40.5044    6.2732 C.3     1  UNL1        0.0000
     18 C           8.9632   40.0247    7.4786 C.3     1  UNL1        0.0086
     19 C           9.0533   42.3982    8.2692 C.3     1  UNL1        0.0086
     20 S          16.9590   44.2439    6.2508 S.3     1  UNL1       -0.0768
     21 C          17.9413   42.7643    6.6621 C.3     1  UNL1        0.1489
     22 C          17.8391   42.4568    8.1149 C.2     1  UNL1        0.2341
     23 N          17.8249   41.0978    8.5533 N.am    1  UNL1       -0.2997
     24 O          17.7502   43.3999    8.9446 O.2     1  UNL1       -0.2741
     25 H          18.0598   40.3899    7.9107 H       1  UNL1        0.1498
     26 C          17.4759   40.7204    9.9157 C.3     1  UNL1        0.1163
     27 F          18.9152   35.3204   10.6787 F       1  UNL1       -0.2042
     28 C          18.5656   36.6163   10.5058 C.ar    1  UNL1        0.1401
     29 C          19.5521   37.6079   10.4947 C.ar    1  UNL1        0.0294
     30 C          19.1936   38.9457   10.3156 C.ar    1  UNL1       -0.0003
     31 C          17.8468   39.2956   10.1560 C.ar    1  UNL1       -0.0024
     32 C          16.8608   38.3026   10.1618 C.ar    1  UNL1       -0.0003
     33 C          17.2204   36.9627   10.3396 C.ar    1  UNL1        0.0294
@<TRIPOS>BOND
     1    28    27    1
     2    29    30   ar
     3    31    32   ar
     4    26    31    1
     5    26    23    1
     6    21    22    1
     7    21    20    1
     8     1    20    1
     9     1     5   ar
    10     2     7    1
    11     2     5   ar
    12    10     6    1
    13    10    11    1
    14    12    11    1
    15    12    13    1
    16    14    13    1
    17    14    15    1
    18    14    19    1
    19    16    15    1
    20    16    17    1
    21    16    18    1
    22    17    12    1
    23    18    10    1
    24    19    10    1
    25    33    28   ar
    26    23    22   am
    27     3     4   ar
    28     7     6   am
    29    28    29   ar
    30    30    31   ar
    31    22    24    2
    32     1     3   ar
    33     2     4   ar
    34     6     8    2
    35    32    33   ar
    36    23    25    1
    37     7     9    1
@<TRIPOS>MOLECULE
MolPort-003-077-942 9599913 CSSS03437082921 MCULE-2999142374 PubChem-18561104 ZINC000009599913 ZINC09599913
 33 37 0 0 0
SMALL
GASTEIGER

@<TRIPOS>ATOM
      1 C           4.5380   41.3640   10.0148 C.ar    1  UNL1        0.1611
      2 C           3.1629   41.8660   11.9103 C.ar    1  UNL1        0.1885
      3 N           4.4743   40.3536   10.9087 N.ar    1  UNL1       -0.1331
      4 N           3.7119   40.6337   11.9636 N.ar    1  UNL1       -0.1248
      5 S           3.6236   42.6877   10.5080 S.2     1  UNL1       -0.0241
      6 C           0.9033   42.5329   12.9119 C.2     1  UNL1        0.2266
      7 N           2.3295   42.3764   12.9565 N.am    1  UNL1       -0.2628
      8 O           0.2563   42.2056   11.8801 O.2     1  UNL1       -0.2747
      9 H           2.7793   42.6469   13.7894 H       1  UNL1        0.1568
     10 C           0.1888   43.1783   14.0693 C.3     1  UNL1        0.0692
     11 C           0.8943   44.5010   14.4181 C.3     1  UNL1        0.0086
     12 C           0.1890   45.1863   15.6001 C.3     1  UNL1        0.0005
     13 C           0.2250   44.2537   16.8213 C.3     1  UNL1        0.0000
     14 C          -0.4900   42.9340   16.4939 C.3     1  UNL1        0.0005
     15 C          -1.9503   43.2298   16.1141 C.3     1  UNL1        0.0000
     16 C          -1.9958   44.1570   14.8902 C.3     1  UNL1        0.0005
     17 C          -1.2732   45.4717   15.2228 C.3     1  UNL1        0.0000
     18 C          -1.2837   43.4742   13.7112 C.3     1  UNL1        0.0086
     19 C           0.2125   42.2557   15.3061 C.3     1  UNL1        0.0086
     20 S           5.5076   41.2981    8.5110 S.3     1  UNL1       -0.0768
     21 C           6.8485   42.3331    9.1850 C.3     1  UNL1        0.1489
     22 C           8.1145   41.5553    9.2731 C.2     1  UNL1        0.2341
     23 N           8.6153   40.8816    8.1180 N.am    1  UNL1       -0.2997
     24 O           8.7255   41.4857   10.3720 O.2     1  UNL1       -0.2741
     25 H           8.2161   41.0836    7.2410 H       1  UNL1        0.1498
     26 C           9.6947   39.9068    8.1890 C.3     1  UNL1        0.1163
     27 F          14.6316   42.2588    6.8076 F       1  UNL1       -0.2042
     28 C          13.4452   41.7028    7.1461 C.ar    1  UNL1        0.1401
     29 C          12.3790   41.7326    6.2411 C.ar    1  UNL1        0.0294
     30 C          11.1540   41.1586    6.5882 C.ar    1  UNL1       -0.0003
     31 C          10.9901   40.5613    7.8444 C.ar    1  UNL1       -0.0024
     32 C          12.0587   40.5269    8.7472 C.ar    1  UNL1       -0.0003
     33 C          13.2859   41.1005    8.3987 C.ar    1  UNL1        0.0294
@<TRIPOS>BOND
     1    28    27    1
     2    29    30   ar
     3    31    32   ar
     4    26    31    1
     5    26    23    1
     6    21    22    1
     7    21    20    1
     8     1    20    1
     9     1     5   ar
    10     2     7    1
    11     2     5   ar
    12    10     6    1
    13    10    11    1
    14    12    11    1
    15    12    13    1
    16    14    13    1
    17    14    15    1
    18    14    19    1
    19    16    15    1
    20    16    17    1
    21    16    18    1
    22    17    12    1
    23    18    10    1
    24    19    10    1
    25    33    28   ar
    26    23    22   am
    27     3     4   ar
    28     7     6   am
    29    28    29   ar
    30    30    31   ar
    31    22    24    2
    32     1     3   ar
    33     2     4   ar
    34     6     8    2
    35    32    33   ar
    36    23    25    1
    37     7     9    1
@<TRIPOS>MOLECULE
MolPort-003-077-942 9599913 CSSS03437082921 MCULE-2999142374 PubChem-18561104 ZINC000009599913 ZINC09599913
 33 37 0 0 0
SMALL
GASTEIGER

@<TRIPOS>ATOM
      1 C          15.4177   43.3184    6.6795 C.ar    1  UNL1        0.1611
      2 C          13.1234   42.6331    6.7298 C.ar    1  UNL1        0.1885
      3 N          15.2374   42.1031    7.2404 N.ar    1  UNL1       -0.1331
      4 N          13.9616   41.7233    7.2706 N.ar    1  UNL1       -0.1248
      5 S          13.9596   43.9945    6.1809 S.2     1  UNL1       -0.0241
      6 C          10.8583   42.0822    7.7880 C.2     1  UNL1        0.2266
      7 N          11.7065   42.4336    6.6845 N.am    1  UNL1       -0.2628
      8 O          11.3435   41.9202    8.9407 O.2     1  UNL1       -0.2747
      9 H          11.2703   42.5489    5.8094 H       1  UNL1        0.1568
     10 C           9.3964   41.8149    7.5475 C.3     1  UNL1        0.0692
     11 C           8.5659   42.8945    8.2641 C.3     1  UNL1        0.0086
     12 C           7.0646   42.6493    8.0397 C.3     1  UNL1        0.0005
     13 C           6.6885   41.2666    8.5953 C.3     1  UNL1        0.0000
     14 C           7.4983   40.1758    7.8780 C.3     1  UNL1        0.0005
     15 C           7.1932   40.2264    6.3718 C.3     1  UNL1        0.0000
     16 C           7.5718   41.6037    5.8066 C.3     1  UNL1        0.0005
     17 C           6.7632   42.6897    6.5332 C.3     1  UNL1        0.0000
     18 C           9.0713   41.8512    6.0385 C.3     1  UNL1        0.0086
     19 C           8.9991   40.4289    8.0974 C.3     1  UNL1        0.0086
     20 S          17.0154   44.1115    6.5237 S.3     1  UNL1       -0.0768
     21 C          17.9419   42.6110    6.9856 C.3     1  UNL1        0.1489
     22 C          17.7099   42.2740    8.4167 C.2     1  UNL1        0.2341
     23 N          17.6449   40.9063    8.8221 N.am    1  UNL1       -0.2997
     24 O          17.5575   43.2002    9.2562 O.2     1  UNL1       -0.2741
     25 H          17.9286   40.2096    8.1870 H       1  UNL1        0.1498
     26 C          17.1745   40.5039   10.1402 C.3     1  UNL1        0.1163
     27 F          12.8705   36.8780    9.7634 F       1  UNL1       -0.2042
     28 C          13.9051   37.7467    9.8430 C.ar    1  UNL1        0.1401
     29 C          13.6559   39.1114   10.0224 C.ar    1  UNL1        0.0294
     30 C          14.7222   40.0095   10.1056 C.ar    1  UNL1       -0.0003
     31 C          16.0396   39.5458   10.0008 C.ar    1  UNL1       -0.0024
     32 C          16.2885   38.1798    9.8268 C.ar    1  UNL1       -0.0003
     33 C          15.2205   37.2804    9.7451 C.ar    1  UNL1        0.0294
@<TRIPOS>BOND
     1    28    27    1
     2    29    30   ar
     3    31    32   ar
     4    26    31    1
     5    26    23    1
     6    21    22    1
     7    21    20    1
     8     1    20    1
     9     1     5   ar
    10     2     7    1
    11     2     5   ar
    12    10     6    1
    13    10    11    1
    14    12    11    1
    15    12    13    1
    16    14    13    1
    17    14    15    1
    18    14    19    1
    19    16    15    1
    20    16    17    1
    21    16    18    1
    22    17    12    1
    23    18    10    1
    24    19    10    1
    25    33    28   ar
    26    23    22   am
    27     3     4   ar
    28     7     6   am
    29    28    29   ar
    30    30    31   ar
    31    22    24    2
    32     1     3   ar
    33     2     4   ar
    34     6     8    2
    35    32    33   ar
    36    23    25    1
    37     7     9    1
@<TRIPOS>MOLECULE
MolPort-003-077-942 9599913 CSSS03437082921 MCULE-2999142374 PubChem-18561104 ZINC000009599913 ZINC09599913
 33 37 0 0 0
SMALL
GASTEIGER

@<TRIPOS>ATOM
      1 C           9.9239   40.8213    5.5075 C.ar    1  UNL1        0.1611
      2 C           7.8373   40.7799    6.6824 C.ar    1  UNL1        0.1885
      3 N           8.9033   40.3434    4.7631 N.ar    1  UNL1       -0.1331
      4 N           7.7439   40.3180    5.4172 N.ar    1  UNL1       -0.1248
      5 S           9.4175   41.2469    7.0547 S.2     1  UNL1       -0.0241
      6 C           6.3992   41.8521    8.5090 C.2     1  UNL1        0.2266
      7 N           6.7125   40.8149    7.5673 N.am    1  UNL1       -0.2628
      8 O           7.1451   42.8631    8.6178 O.2     1  UNL1       -0.2747
      9 H           6.0920   40.0517    7.5259 H       1  UNL1        0.1568
     10 C           5.2248   41.6859    9.4360 C.3     1  UNL1        0.0692
     11 C           4.2921   40.5992    8.8720 C.3     1  UNL1        0.0086
     12 C           3.0786   40.4053    9.7962 C.3     1  UNL1        0.0005
     13 C           2.3076   41.7305    9.9048 C.3     1  UNL1        0.0000
     14 C           3.2213   42.8224   10.4817 C.3     1  UNL1        0.0005
     15 C           3.7062   42.3925   11.8761 C.3     1  UNL1        0.0000
     16 C           4.4833   41.0711   11.7763 C.3     1  UNL1        0.0005
     17 C           3.5654   39.9859   11.1923 C.3     1  UNL1        0.0000
     18 C           5.6919   41.2639   10.8459 C.3     1  UNL1        0.0086
     19 C           4.4379   43.0075    9.5597 C.3     1  UNL1        0.0086
     20 S          11.6087   40.9487    4.9150 S.3     1  UNL1       -0.0768
     21 C          12.1032   42.1351    6.2079 C.3     1  UNL1        0.1489
     22 C          13.3838   41.7152    6.8398 C.2     1  UNL1        0.2341
     23 N          13.3776   41.1616    8.1561 N.am    1  UNL1       -0.2997
     24 O          14.4650   41.8666    6.2122 O.2     1  UNL1       -0.2741
     25 H          12.5168   40.9018    8.5570 H       1  UNL1        0.1498
     26 C          14.5973   40.9672    8.9273 C.3     1  UNL1        0.1163
     27 F          18.4955   44.6139    7.1054 F       1  UNL1       -0.2042
     28 C          17.5638   43.7403    7.5529 C.ar    1  UNL1        0.1401
     29 C          16.2151   44.1108    7.5731 C.ar    1  UNL1        0.0294
     30 C          15.2519   43.2105    8.0337 C.ar    1  UNL1       -0.0003
     31 C          15.6365   41.9410    8.4833 C.ar    1  UNL1       -0.0024
     32 C          16.9853   41.5690    8.4578 C.ar    1  UNL1       -0.0003
     33 C          17.9494   42.4703    7.9949 C.ar    1  UNL1        0.0294
@<TRIPOS>BOND
     1    28    27    1
     2    29    30   ar
     3    31    32   ar
     4    26    31    1
     5    26    23    1
     6    21    22    1
     7    21    20    1
     8     1    20    1
     9     1     5   ar
    10     2     7    1
    11     2     5   ar
    12    10     6    1
    13    10    11    1
    14    12    11    1
    15    12    13    1
    16    14    13    1
    17    14    15    1
    18    14    19    1
    19    16    15    1
    20    16    17    1
    21    16    18    1
    22    17    12    1
    23    18    10    1
    24    19    10    1
    25    33    28   ar
    26    23    22   am
    27     3     4   ar
    28     7     6   am
    29    28    29   ar
    30    30    31   ar
    31    22    24    2
    32     1     3   ar
    33     2     4   ar
    34     6     8    2
    35    32    33   ar
    36    23    25    1
    37     7     9    1
@<TRIPOS>MOLECULE
MolPort-003-077-942 9599913 CSSS03437082921 MCULE-2999142374 PubChem-18561104 ZINC000009599913 ZINC09599913
 33 37 0 0 0
SMALL
GASTEIGER

@<TRIPOS>ATOM
      1 C           5.3487   42.1373    9.7436 C.ar    1  UNL1        0.1611
      2 C           3.5663   42.5055   11.3004 C.ar    1  UNL1        0.1885
      3 N           5.4938   41.4428   10.8928 N.ar    1  UNL1       -0.1331
      4 N           4.5042   41.6495   11.7592 N.ar    1  UNL1       -0.1248
      5 S           3.9446   43.0646    9.7518 S.2     1  UNL1       -0.0241
      6 C           1.7503   42.0710   13.0517 C.2     1  UNL1        0.2266
      7 N           2.4302   42.8850   12.0844 N.am    1  UNL1       -0.2628
      8 O           2.1416   40.8952   13.2858 O.2     1  UNL1       -0.2747
      9 H           2.0804   43.7948   11.9464 H       1  UNL1        0.1568
     10 C           0.5071   42.5927   13.7216 C.3     1  UNL1        0.0692
     11 C           0.5972   42.3115   15.2321 C.3     1  UNL1        0.0086
     12 C          -0.6606   42.8315   15.9476 C.3     1  UNL1        0.0005
     13 C          -1.8989   42.1259   15.3722 C.3     1  UNL1        0.0000
     14 C          -2.0117   42.4104   13.8668 C.3     1  UNL1        0.0005
     15 C          -2.1335   43.9272   13.6457 C.3     1  UNL1        0.0000
     16 C          -0.8967   44.6403   14.2128 C.3     1  UNL1        0.0005
     17 C          -0.7866   44.3456   15.7169 C.3     1  UNL1        0.0000
     18 C           0.3611   44.1141   13.5023 C.3     1  UNL1        0.0086
     19 C          -0.7486   41.8970   13.1557 C.3     1  UNL1        0.0086
     20 S           6.5316   42.0903    8.4003 S.3     1  UNL1       -0.0768
     21 C           5.7765   40.6236    7.6242 C.3     1  UNL1        0.1489
     22 C           6.7759   39.9008    6.7911 C.2     1  UNL1        0.2341
     23 N           8.1634   39.9796    7.1194 N.am    1  UNL1       -0.2997
     24 O           6.3892   39.2375    5.7930 O.2     1  UNL1       -0.2741
     25 H           8.4239   40.3616    7.9885 H       1  UNL1        0.1498
     26 C           9.2072   39.5157    6.2163 C.3     1  UNL1        0.1163
     27 F          14.2159   41.7353    7.5577 F       1  UNL1       -0.2042
     28 C          13.0101   41.2064    7.2454 C.ar    1  UNL1        0.1401
     29 C          12.2215   41.8060    6.2579 C.ar    1  UNL1        0.0294
     30 C          10.9772   41.2612    5.9335 C.ar    1  UNL1       -0.0003
     31 C          10.5150   40.1207    6.6023 C.ar    1  UNL1       -0.0024
     32 C          11.3066   39.5181    7.5864 C.ar    1  UNL1       -0.0003
     33 C          12.5535   40.0630    7.9099 C.ar    1  UNL1        0.0294
@<TRIPOS>BOND
     1    28    27    1
     2    29    30   ar
     3    31    32   ar
     4    26    31    1
     5    26    23    1
     6    21    22    1
     7    21    20    1
     8     1    20    1
     9     1     5   ar
    10     2     7    1
    11     2     5   ar
    12    10     6    1
    13    10    11    1
    14    12    11    1
    15    12    13    1
    16    14    13    1
    17    14    15    1
    18    14    19    1
    19    16    15    1
    20    16    17    1
    21    16    18    1
    22    17    12    1
    23    18    10    1
    24    19    10    1
    25    33    28   ar
    26    23    22   am
    27     3     4   ar
    28     7     6   am
    29    28    29   ar
    30    30    31   ar
    31    22    24    2
    32     1     3   ar
    33     2     4   ar
    34     6     8    2
    35    32    33   ar
    36    23    25    1
    37     7     9    1
