@<TRIPOS>MOLECULE
MolPort-016-723-833 36752774 MCULE-7202345058 PubChem-93242465 ZINC000036752774 ZINC36752774
 31 34 0 0 0
SMALL
GASTEIGER

@<TRIPOS>ATOM
      1 C          10.5626   41.8639    7.0822 C.2     1  UNL1        0.2887
      2 N           9.6244   42.3385    8.0561 N.am    1  UNL1       -0.2566
      3 O          10.2083   41.6440    5.8933 O.2     1  UNL1       -0.2663
      4 H           9.9680   42.4911    8.9659 H       1  UNL1        0.1572
      5 C          14.5875   39.8631    9.0579 C.3     1  UNL1        0.0738
      6 C          13.6829   40.7872    8.3149 C.ar    1  UNL1        0.1429
      7 C          11.9553   41.6312    7.4761 C.ar    1  UNL1        0.2373
      8 N          12.3567   40.5743    8.2142 N.ar    1  UNL1       -0.2064
      9 N          12.9721   42.4489    7.1404 N.ar    1  UNL1       -0.1397
     10 N          14.0598   41.9153    7.6699 N.ar    1  UNL1       -0.2145
     11 C          15.3716   42.4975    7.5350 C.ar    1  UNL1        0.0842
     12 C          15.6279   43.5238    6.6117 C.ar    1  UNL1        0.0192
     13 C          16.9072   44.0752    6.4963 C.ar    1  UNL1        0.0015
     14 C          17.9453   43.6058    7.3041 C.ar    1  UNL1        0.0001
     15 C          17.7041   42.5853    8.2267 C.ar    1  UNL1        0.0015
     16 C          16.4242   42.0349    8.3411 C.ar    1  UNL1        0.0192
     17 C           8.2357   42.6127    7.8358 C.ar    1  UNL1        0.1881
     18 C           5.9919   43.4217    7.5865 C.ar    1  UNL1        0.1127
     19 N           7.3806   41.6767    7.3712 N.ar    1  UNL1       -0.1256
     20 N           6.1349   42.1264    7.2308 N.ar    1  UNL1       -0.1440
     21 S           7.4526   44.0860    8.0980 S.2     1  UNL1       -0.0347
     22 C           4.7019   44.1638    7.4936 C.3     1  UNL1        0.0592
     23 C           3.9510   44.1130    8.8222 C.3     1  UNL1        0.0334
     24 C           4.1198   42.8297    9.5867 C.ar    1  UNL1       -0.0188
     25 C           3.1703   41.8193    9.4042 C.ar    1  UNL1       -0.0041
     26 C           3.2814   40.6109   10.0973 C.ar    1  UNL1        0.0028
     27 C           4.3444   40.4059   10.9809 C.ar    1  UNL1        0.0369
     28 C           5.3005   41.4065   11.1784 C.ar    1  UNL1        0.1384
     29 C           5.1821   42.6189   10.4805 C.ar    1  UNL1        0.0326
     30 C           7.7168   41.3254   11.6988 C.3     1  UNL1        0.2525
     31 O           6.3528   41.1728   12.0675 O.3     1  UNL1       -0.4714
@<TRIPOS>BOND
     1     5     6    1
     2     7     8   ar
     3     7     1    1
     4    12    13   ar
     5    14    15   ar
     6    16    11   ar
     7     1     2   am
     8    17    21   ar
     9    18    21   ar
    10    22    18    1
    11    22    23    1
    12    23    24    1
    13    25    26   ar
    14    27    28   ar
    15    28    31    1
    16    29    24   ar
    17    30    31    1
    18    10     9   ar
    19    10    11    1
    20    10     6   ar
    21     2    17    1
    22    19    20   ar
    23     6     8   ar
    24     7     9   ar
    25    11    12   ar
    26    13    14   ar
    27    15    16   ar
    28     1     3    2
    29    17    19   ar
    30    18    20   ar
    31    24    25   ar
    32    26    27   ar
    33    28    29   ar
    34     2     4    1
@<TRIPOS>MOLECULE
MolPort-016-723-833 36752774 MCULE-7202345058 PubChem-93242465 ZINC000036752774 ZINC36752774
 31 34 0 0 0
SMALL
GASTEIGER

@<TRIPOS>ATOM
      1 C          10.2308   42.3895    9.6600 C.2     1  UNL1        0.2887
      2 N          10.7092   41.0395    9.6106 N.am    1  UNL1       -0.2566
      3 O          11.0212   43.3512    9.8547 O.2     1  UNL1       -0.2663
      4 H          10.0383   40.3363    9.4535 H       1  UNL1        0.1572
      5 C           6.0002   44.4826    8.3083 C.3     1  UNL1        0.0738
      6 C           6.9854   43.5384    8.9101 C.ar    1  UNL1        0.1429
      7 C           8.8002   42.6546    9.4810 C.ar    1  UNL1        0.2373
      8 N           8.3161   43.7203    8.8079 N.ar    1  UNL1       -0.2064
      9 N           7.8275   41.8613    9.9702 N.ar    1  UNL1       -0.1397
     10 N           6.6847   42.4198    9.6094 N.ar    1  UNL1       -0.2145
     11 C           5.3954   41.8686    9.9438 C.ar    1  UNL1        0.0842
     12 C           4.2861   42.0305    9.0984 C.ar    1  UNL1        0.0192
     13 C           3.0442   41.4880    9.4407 C.ar    1  UNL1        0.0015
     14 C           2.8979   40.7769   10.6338 C.ar    1  UNL1        0.0001
     15 C           3.9932   40.6084   11.4840 C.ar    1  UNL1        0.0015
     16 C           5.2345   41.1514   11.1403 C.ar    1  UNL1        0.0192
     17 C          12.0676   40.6126    9.7673 C.ar    1  UNL1        0.1881
     18 C          14.3753   39.9692    9.6595 C.ar    1  UNL1        0.1127
     19 N          12.5659   40.2153   10.9577 N.ar    1  UNL1       -0.1256
     20 N          13.8481   39.8599   10.8983 N.ar    1  UNL1       -0.1440
     21 S          13.2394   40.5371    8.5533 S.2     1  UNL1       -0.0347
     22 C          15.7981   39.6582    9.3394 C.3     1  UNL1        0.0592
     23 C          16.7066   40.8245    9.7214 C.3     1  UNL1        0.0334
     24 C          16.7412   41.9440    8.7187 C.ar    1  UNL1       -0.0188
     25 C          17.8150   42.8391    8.7608 C.ar    1  UNL1       -0.0041
     26 C          17.8880   43.8992    7.8531 C.ar    1  UNL1        0.0028
     27 C          16.8840   44.0722    6.8967 C.ar    1  UNL1        0.0369
     28 C          15.8014   43.1892    6.8427 C.ar    1  UNL1        0.1384
     29 C          15.7331   42.1274    7.7587 C.ar    1  UNL1        0.0326
     30 C          14.3298   44.6762    5.5241 C.3     1  UNL1        0.2525
     31 O          14.8130   43.3867    5.8750 O.3     1  UNL1       -0.4714
@<TRIPOS>BOND
     1     5     6    1
     2     7     8   ar
     3     7     1    1
     4    12    13   ar
     5    14    15   ar
     6    16    11   ar
     7     1     2   am
     8    17    21   ar
     9    18    21   ar
    10    22    18    1
    11    22    23    1
    12    23    24    1
    13    25    26   ar
    14    27    28   ar
    15    28    31    1
    16    29    24   ar
    17    30    31    1
    18    10     9   ar
    19    10    11    1
    20    10     6   ar
    21     2    17    1
    22    19    20   ar
    23     6     8   ar
    24     7     9   ar
    25    11    12   ar
    26    13    14   ar
    27    15    16   ar
    28     1     3    2
    29    17    19   ar
    30    18    20   ar
    31    24    25   ar
    32    26    27   ar
    33    28    29   ar
    34     2     4    1
@<TRIPOS>MOLECULE
MolPort-016-723-833 36752774 MCULE-7202345058 PubChem-93242465 ZINC000036752774 ZINC36752774
 31 34 0 0 0
SMALL
GASTEIGER

@<TRIPOS>ATOM
      1 C          10.0778   41.2430    7.8008 C.2     1  UNL1        0.2887
      2 N           9.2567   41.0947    8.9660 N.am    1  UNL1       -0.2566
      3 O           9.5664   41.3129    6.6514 O.2     1  UNL1       -0.2663
      4 H           9.7208   41.0481    9.8330 H       1  UNL1        0.1572
      5 C          14.6659   40.3936    9.3284 C.3     1  UNL1        0.0738
      6 C          13.4995   40.9618    8.5930 C.ar    1  UNL1        0.1429
      7 C          11.5344   41.3147    7.9494 C.ar    1  UNL1        0.2373
      8 N          12.2364   40.5481    8.8111 N.ar    1  UNL1       -0.2064
      9 N          12.3162   42.1523    7.2408 N.ar    1  UNL1       -0.1397
     10 N          13.5541   41.9284    7.6477 N.ar    1  UNL1       -0.2145
     11 C          14.6976   42.6331    7.1245 C.ar    1  UNL1        0.0842
     12 C          15.9599   42.5378    7.7321 C.ar    1  UNL1        0.0192
     13 C          17.0564   43.2290    7.2091 C.ar    1  UNL1        0.0015
     14 C          16.9024   44.0243    6.0713 C.ar    1  UNL1        0.0001
     15 C          15.6523   44.1279    5.4570 C.ar    1  UNL1        0.0015
     16 C          14.5566   43.4360    5.9811 C.ar    1  UNL1        0.0192
     17 C           7.8271   41.0074    8.9933 C.ar    1  UNL1        0.1881
     18 C           5.4654   40.9485    9.4059 C.ar    1  UNL1        0.1127
     19 N           7.1015   40.7119    7.8935 N.ar    1  UNL1       -0.1256
     20 N           5.7898   40.6812    8.1221 N.ar    1  UNL1       -0.1440
     21 S           6.8350   41.2520   10.3380 S.2     1  UNL1       -0.0347
     22 C           4.0620   41.0021    9.9068 C.3     1  UNL1        0.0592
     23 C           3.6550   42.4389   10.2255 C.3     1  UNL1        0.0334
     24 C           4.2141   43.4699    9.2849 C.ar    1  UNL1       -0.0188
     25 C           3.3353   44.1120    8.4067 C.ar    1  UNL1       -0.0041
     26 C           3.8089   45.0734    7.5097 C.ar    1  UNL1        0.0028
     27 C           5.1679   45.3976    7.4840 C.ar    1  UNL1        0.0369
     28 C           6.0611   44.7627    8.3522 C.ar    1  UNL1        0.1384
     29 C           5.5792   43.7965    9.2497 C.ar    1  UNL1        0.0326
     30 C           8.3528   44.6685    9.2769 C.3     1  UNL1        0.2525
     31 O           7.4142   45.1081    8.3045 O.3     1  UNL1       -0.4714
@<TRIPOS>BOND
     1     5     6    1
     2     7     8   ar
     3     7     1    1
     4    12    13   ar
     5    14    15   ar
     6    16    11   ar
     7     1     2   am
     8    17    21   ar
     9    18    21   ar
    10    22    18    1
    11    22    23    1
    12    23    24    1
    13    25    26   ar
    14    27    28   ar
    15    28    31    1
    16    29    24   ar
    17    30    31    1
    18    10     9   ar
    19    10    11    1
    20    10     6   ar
    21     2    17    1
    22    19    20   ar
    23     6     8   ar
    24     7     9   ar
    25    11    12   ar
    26    13    14   ar
    27    15    16   ar
    28     1     3    2
    29    17    19   ar
    30    18    20   ar
    31    24    25   ar
    32    26    27   ar
    33    28    29   ar
    34     2     4    1
@<TRIPOS>MOLECULE
MolPort-016-723-833 36752774 MCULE-7202345058 PubChem-93242465 ZINC000036752774 ZINC36752774
 31 34 0 0 0
SMALL
GASTEIGER

@<TRIPOS>ATOM
      1 C          10.9566   41.9646    7.2255 C.2     1  UNL1        0.2887
      2 N           9.8953   42.2333    8.1504 N.am    1  UNL1       -0.2566
      3 O          10.7471   41.9529    5.9832 O.2     1  UNL1       -0.2663
      4 H          10.1284   42.2287    9.1069 H       1  UNL1        0.1572
      5 C          15.8211   42.1261    7.8708 C.3     1  UNL1        0.0738
      6 C          14.3834   41.7588    8.0194 C.ar    1  UNL1        0.1429
      7 C          12.3060   41.6998    7.7334 C.ar    1  UNL1        0.2373
      8 N          13.4142   42.3139    7.2665 N.ar    1  UNL1       -0.2064
      9 N          12.5736   40.8178    8.7159 N.ar    1  UNL1       -0.1397
     10 N          13.8831   40.8564    8.8947 N.ar    1  UNL1       -0.2145
     11 C          14.5717   40.0482    9.8696 C.ar    1  UNL1        0.0842
     12 C          15.9438   39.7720    9.7570 C.ar    1  UNL1        0.0192
     13 C          16.5933   38.9861   10.7131 C.ar    1  UNL1        0.0015
     14 C          15.8767   38.4670   11.7937 C.ar    1  UNL1        0.0001
     15 C          14.5114   38.7339   11.9179 C.ar    1  UNL1        0.0015
     16 C          13.8632   39.5202   10.9610 C.ar    1  UNL1        0.0192
     17 C           8.5288   42.5079    7.8200 C.ar    1  UNL1        0.1881
     18 C           6.2999   43.3032    7.4318 C.ar    1  UNL1        0.1127
     19 N           7.7509   41.6163    7.1696 N.ar    1  UNL1       -0.1256
     20 N           6.5136   42.0587    6.9522 N.ar    1  UNL1       -0.1440
     21 S           7.6829   43.9295    8.1609 S.2     1  UNL1       -0.0347
     22 C           5.0058   44.0300    7.2890 C.3     1  UNL1        0.0592
     23 C           4.2944   44.1392    8.6358 C.3     1  UNL1        0.0334
     24 C           4.2826   42.8697    9.4409 C.ar    1  UNL1       -0.0188
     25 C           3.1647   42.0348    9.3462 C.ar    1  UNL1       -0.0041
     26 C           3.1051   40.8469   10.0800 C.ar    1  UNL1        0.0028
     27 C           4.1648   40.4870   10.9166 C.ar    1  UNL1        0.0369
     28 C           5.2884   41.3116   11.0263 C.ar    1  UNL1        0.1384
     29 C           5.3413   42.5045   10.2879 C.ar    1  UNL1        0.0326
     30 C           7.5738   41.6165   11.9205 C.3     1  UNL1        0.2525
     31 O           6.3332   40.9254   11.8701 O.3     1  UNL1       -0.4714
@<TRIPOS>BOND
     1     5     6    1
     2     7     8   ar
     3     7     1    1
     4    12    13   ar
     5    14    15   ar
     6    16    11   ar
     7     1     2   am
     8    17    21   ar
     9    18    21   ar
    10    22    18    1
    11    22    23    1
    12    23    24    1
    13    25    26   ar
    14    27    28   ar
    15    28    31    1
    16    29    24   ar
    17    30    31    1
    18    10     9   ar
    19    10    11    1
    20    10     6   ar
    21     2    17    1
    22    19    20   ar
    23     6     8   ar
    24     7     9   ar
    25    11    12   ar
    26    13    14   ar
    27    15    16   ar
    28     1     3    2
    29    17    19   ar
    30    18    20   ar
    31    24    25   ar
    32    26    27   ar
    33    28    29   ar
    34     2     4    1
@<TRIPOS>MOLECULE
MolPort-016-723-833 36752774 MCULE-7202345058 PubChem-93242465 ZINC000036752774 ZINC36752774
 31 34 0 0 0
SMALL
GASTEIGER

@<TRIPOS>ATOM
      1 C           7.3248   41.2239    8.7344 C.2     1  UNL1        0.2887
      2 N           7.0322   41.5190   10.1060 N.am    1  UNL1       -0.2566
      3 O           6.4023   40.9737    7.9136 O.2     1  UNL1       -0.2663
      4 H           7.7999   41.7068   10.6931 H       1  UNL1        0.1572
      5 C          11.3202   41.5964    5.9053 C.3     1  UNL1        0.0738
      6 C          10.4340   41.3685    7.0829 C.ar    1  UNL1        0.1429
      7 C           8.7187   41.2132    8.2805 C.ar    1  UNL1        0.2373
      8 N           9.0960   41.5103    7.0186 N.ar    1  UNL1       -0.2064
      9 N           9.7605   40.9060    9.0774 N.ar    1  UNL1       -0.1397
     10 N          10.8404   41.0044    8.3210 N.ar    1  UNL1       -0.2145
     11 C          12.1730   40.7515    8.8092 C.ar    1  UNL1        0.0842
     12 C          13.3072   41.0641    8.0428 C.ar    1  UNL1        0.0192
     13 C          14.5910   40.8110    8.5343 C.ar    1  UNL1        0.0015
     14 C          14.7547   40.2419    9.7992 C.ar    1  UNL1        0.0001
     15 C          13.6350   39.9260   10.5720 C.ar    1  UNL1        0.0015
     16 C          12.3517   40.1798   10.0792 C.ar    1  UNL1        0.0192
     17 C           5.7327   41.5678   10.7066 C.ar    1  UNL1        0.1881
     18 C           3.4961   41.9458   11.4850 C.ar    1  UNL1        0.1127
     19 N           5.3427   40.6883   11.6541 N.ar    1  UNL1       -0.1256
     20 N           4.0999   40.8970   12.0849 N.ar    1  UNL1       -0.1440
     21 S           4.5078   42.6757   10.3535 S.2     1  UNL1       -0.0347
     22 C           2.0947   42.3652   11.7740 C.3     1  UNL1        0.0592
     23 C           1.5387   41.6049   12.9758 C.3     1  UNL1        0.0334
     24 C           0.5210   42.3651   13.7799 C.ar    1  UNL1       -0.0188
     25 C           0.4594   43.7540   13.6285 C.ar    1  UNL1       -0.0041
     26 C          -0.4660   44.5046   14.3588 C.ar    1  UNL1        0.0028
     27 C          -1.3362   43.8693   15.2486 C.ar    1  UNL1        0.0369
     28 C          -1.2858   42.4821   15.4153 C.ar    1  UNL1        0.1384
     29 C          -0.3526   41.7341   14.6800 C.ar    1  UNL1        0.0326
     30 C          -2.4724   42.4287   17.5843 C.3     1  UNL1        0.2525
     31 O          -2.1690   41.8743   16.3115 O.3     1  UNL1       -0.4714
@<TRIPOS>BOND
     1     5     6    1
     2     7     8   ar
     3     7     1    1
     4    12    13   ar
     5    14    15   ar
     6    16    11   ar
     7     1     2   am
     8    17    21   ar
     9    18    21   ar
    10    22    18    1
    11    22    23    1
    12    23    24    1
    13    25    26   ar
    14    27    28   ar
    15    28    31    1
    16    29    24   ar
    17    30    31    1
    18    10     9   ar
    19    10    11    1
    20    10     6   ar
    21     2    17    1
    22    19    20   ar
    23     6     8   ar
    24     7     9   ar
    25    11    12   ar
    26    13    14   ar
    27    15    16   ar
    28     1     3    2
    29    17    19   ar
    30    18    20   ar
    31    24    25   ar
    32    26    27   ar
    33    28    29   ar
    34     2     4    1
@<TRIPOS>MOLECULE
MolPort-016-723-833 36752774 MCULE-7202345058 PubChem-93242465 ZINC000036752774 ZINC36752774
 31 34 0 0 0
SMALL
GASTEIGER

@<TRIPOS>ATOM
      1 C          12.2007   40.3700    9.4554 C.2     1  UNL1        0.2887
      2 N          11.3114   41.4384    9.8039 N.am    1  UNL1       -0.2566
      3 O          11.7712   39.1979    9.2847 O.2     1  UNL1       -0.2663
      4 H          11.7128   42.3297    9.9209 H       1  UNL1        0.1572
      5 C          17.0852   40.1116    9.8808 C.3     1  UNL1        0.0738
      6 C          15.7198   40.5467    9.4679 C.ar    1  UNL1        0.1429
      7 C          13.6315   40.6459    9.2951 C.ar    1  UNL1        0.2373
      8 N          14.6027   39.9388    9.9116 N.ar    1  UNL1       -0.2064
      9 N          14.1186   41.6318    8.5170 N.ar    1  UNL1       -0.1397
     10 N          15.4346   41.5677    8.6272 N.ar    1  UNL1       -0.2145
     11 C          16.3298   42.4643    7.9396 C.ar    1  UNL1        0.0842
     12 C          15.9809   43.0525    6.7133 C.ar    1  UNL1        0.0192
     13 C          16.8633   43.9195    6.0623 C.ar    1  UNL1        0.0015
     14 C          18.1057   44.2079    6.6314 C.ar    1  UNL1        0.0001
     15 C          18.4654   43.6295    7.8508 C.ar    1  UNL1        0.0015
     16 C          17.5820   42.7628    8.5007 C.ar    1  UNL1        0.0192
     17 C           9.8959   41.3369    9.9989 C.ar    1  UNL1        0.1881
     18 C           7.5959   41.2899   10.6765 C.ar    1  UNL1        0.1127
     19 N           9.0606   40.9272    9.0203 N.ar    1  UNL1       -0.1256
     20 N           7.7831   40.9030    9.3959 N.ar    1  UNL1       -0.1440
     21 S           9.0524   41.6990   11.4167 S.2     1  UNL1       -0.0347
     22 C           6.2553   41.3748   11.3238 C.3     1  UNL1        0.0592
     23 C           5.1436   41.1926   10.2929 C.3     1  UNL1        0.0334
     24 C           5.0250   42.3126    9.2972 C.ar    1  UNL1       -0.0188
     25 C           6.0000   42.4196    8.3004 C.ar    1  UNL1       -0.0041
     26 C           5.9356   43.4476    7.3558 C.ar    1  UNL1        0.0028
     27 C           4.8943   44.3781    7.4037 C.ar    1  UNL1        0.0369
     28 C           3.9132   44.2884    8.3956 C.ar    1  UNL1        0.1384
     29 C           3.9846   43.2545    9.3427 C.ar    1  UNL1        0.0326
     30 C           2.2761   45.7335    7.2349 C.3     1  UNL1        0.2525
     31 O           2.8834   45.2326    8.4181 O.3     1  UNL1       -0.4714
@<TRIPOS>BOND
     1     5     6    1
     2     7     8   ar
     3     7     1    1
     4    12    13   ar
     5    14    15   ar
     6    16    11   ar
     7     1     2   am
     8    17    21   ar
     9    18    21   ar
    10    22    18    1
    11    22    23    1
    12    23    24    1
    13    25    26   ar
    14    27    28   ar
    15    28    31    1
    16    29    24   ar
    17    30    31    1
    18    10     9   ar
    19    10    11    1
    20    10     6   ar
    21     2    17    1
    22    19    20   ar
    23     6     8   ar
    24     7     9   ar
    25    11    12   ar
    26    13    14   ar
    27    15    16   ar
    28     1     3    2
    29    17    19   ar
    30    18    20   ar
    31    24    25   ar
    32    26    27   ar
    33    28    29   ar
    34     2     4    1
@<TRIPOS>MOLECULE
MolPort-016-723-833 36752774 MCULE-7202345058 PubChem-93242465 ZINC000036752774 ZINC36752774
 31 34 0 0 0
SMALL
GASTEIGER

@<TRIPOS>ATOM
      1 C          12.1859   40.4032    9.3788 C.2     1  UNL1        0.2887
      2 N          11.4263   40.9910   10.4425 N.am    1  UNL1       -0.2566
      3 O          11.9994   40.7476    8.1813 O.2     1  UNL1       -0.2663
      4 H          11.6237   40.6775   11.3547 H       1  UNL1        0.1572
      5 C          15.8036   37.9365   11.5999 C.3     1  UNL1        0.0738
      6 C          14.7400   38.3223   10.6283 C.ar    1  UNL1        0.1429
      7 C          13.1948   39.3862    9.6896 C.ar    1  UNL1        0.2373
      8 N          14.0091   39.4454   10.7650 N.ar    1  UNL1       -0.2064
      9 N          13.4092   38.2923    8.9330 N.ar    1  UNL1       -0.1397
     10 N          14.3831   37.6232    9.5262 N.ar    1  UNL1       -0.2145
     11 C          14.9096   36.3800    9.0208 C.ar    1  UNL1        0.0842
     12 C          14.2703   35.1555    9.2729 C.ar    1  UNL1        0.0192
     13 C          14.7969   33.9608    8.7738 C.ar    1  UNL1        0.0015
     14 C          15.9700   33.9776    8.0161 C.ar    1  UNL1        0.0001
     15 C          16.6161   35.1887    7.7579 C.ar    1  UNL1        0.0015
     16 C          16.0883   36.3827    8.2576 C.ar    1  UNL1        0.0192
     17 C          10.4082   41.9898   10.3091 C.ar    1  UNL1        0.1881
     18 C           8.8431   43.7147    9.7378 C.ar    1  UNL1        0.1127
     19 N           9.5344   42.2659   11.3008 N.ar    1  UNL1       -0.1256
     20 N           8.6638   43.2223   10.9828 N.ar    1  UNL1       -0.1440
     21 S          10.1239   42.9541    8.9519 S.2     1  UNL1       -0.0347
     22 C           7.9797   44.7721    9.1379 C.3     1  UNL1        0.0592
     23 C           7.1557   44.2079    7.9827 C.3     1  UNL1        0.0334
     24 C           6.1594   43.1551    8.3816 C.ar    1  UNL1       -0.0188
     25 C           6.4199   41.8275    8.0274 C.ar    1  UNL1       -0.0041
     26 C           5.5205   40.8145    8.3709 C.ar    1  UNL1        0.0028
     27 C           4.3513   41.1241    9.0706 C.ar    1  UNL1        0.0369
     28 C           4.0731   42.4464    9.4293 C.ar    1  UNL1        0.1384
     29 C           4.9798   43.4597    9.0797 C.ar    1  UNL1        0.0326
     30 C           2.6162   42.1747   11.4091 C.3     1  UNL1        0.2525
     31 O           2.8965   42.7258   10.1295 O.3     1  UNL1       -0.4714
@<TRIPOS>BOND
     1     5     6    1
     2     7     8   ar
     3     7     1    1
     4    12    13   ar
     5    14    15   ar
     6    16    11   ar
     7     1     2   am
     8    17    21   ar
     9    18    21   ar
    10    22    18    1
    11    22    23    1
    12    23    24    1
    13    25    26   ar
    14    27    28   ar
    15    28    31    1
    16    29    24   ar
    17    30    31    1
    18    10     9   ar
    19    10    11    1
    20    10     6   ar
    21     2    17    1
    22    19    20   ar
    23     6     8   ar
    24     7     9   ar
    25    11    12   ar
    26    13    14   ar
    27    15    16   ar
    28     1     3    2
    29    17    19   ar
    30    18    20   ar
    31    24    25   ar
    32    26    27   ar
    33    28    29   ar
    34     2     4    1
@<TRIPOS>MOLECULE
MolPort-016-723-833 36752774 MCULE-7202345058 PubChem-93242465 ZINC000036752774 ZINC36752774
 31 34 0 0 0
SMALL
GASTEIGER

@<TRIPOS>ATOM
      1 C          10.4416   41.4790    7.7536 C.2     1  UNL1        0.2887
      2 N           9.5654   42.0118    8.7548 N.am    1  UNL1       -0.2566
      3 O          10.2268   41.6822    6.5288 O.2     1  UNL1       -0.2663
      4 H           9.7924   41.8165    9.6927 H       1  UNL1        0.1572
      5 C          14.9924   40.2028    9.0831 C.3     1  UNL1        0.0738
      6 C          13.5454   40.1270    8.7304 C.ar    1  UNL1        0.1429
      7 C          11.6051   40.6860    8.1615 C.ar    1  UNL1        0.2373
      8 N          12.8264   41.2143    8.3910 N.ar    1  UNL1       -0.2064
      9 N          11.5707   39.3522    8.3476 N.ar    1  UNL1       -0.1397
     10 N          12.7942   39.0018    8.7060 N.ar    1  UNL1       -0.2145
     11 C          13.1729   37.6422    8.9997 C.ar    1  UNL1        0.0842
     12 C          12.3862   36.8231    9.8253 C.ar    1  UNL1        0.0192
     13 C          12.7707   35.5072   10.0979 C.ar    1  UNL1        0.0015
     14 C          13.9478   34.9955    9.5470 C.ar    1  UNL1        0.0001
     15 C          14.7397   35.7995    8.7241 C.ar    1  UNL1        0.0015
     16 C          14.3537   37.1153    8.4523 C.ar    1  UNL1        0.0192
     17 C           8.3918   42.8004    8.5251 C.ar    1  UNL1        0.1881
     18 C           6.3011   43.8220    7.9452 C.ar    1  UNL1        0.1127
     19 N           8.2536   44.0488    9.0205 N.ar    1  UNL1       -0.1256
     20 N           7.0916   44.6155    8.7002 N.ar    1  UNL1       -0.1440
     21 S           7.0302   42.3345    7.6412 S.2     1  UNL1       -0.0347
     22 C           4.9400   44.2169    7.4816 C.3     1  UNL1        0.0592
     23 C           3.9294   44.1179    8.6220 C.3     1  UNL1        0.0334
     24 C           4.0104   42.8464    9.4200 C.ar    1  UNL1       -0.0188
     25 C           3.0000   41.8938    9.2540 C.ar    1  UNL1       -0.0041
     26 C           3.0287   40.6989    9.9782 C.ar    1  UNL1        0.0028
     27 C           4.0696   40.4497   10.8766 C.ar    1  UNL1        0.0369
     28 C           5.0858   41.3926   11.0579 C.ar    1  UNL1        0.1384
     29 C           5.0501   42.5918   10.3286 C.ar    1  UNL1        0.0326
     30 C           7.4455   41.5764   11.7749 C.3     1  UNL1        0.2525
     31 O           6.1143   41.1155   11.9624 O.3     1  UNL1       -0.4714
@<TRIPOS>BOND
     1     5     6    1
     2     7     8   ar
     3     7     1    1
     4    12    13   ar
     5    14    15   ar
     6    16    11   ar
     7     1     2   am
     8    17    21   ar
     9    18    21   ar
    10    22    18    1
    11    22    23    1
    12    23    24    1
    13    25    26   ar
    14    27    28   ar
    15    28    31    1
    16    29    24   ar
    17    30    31    1
    18    10     9   ar
    19    10    11    1
    20    10     6   ar
    21     2    17    1
    22    19    20   ar
    23     6     8   ar
    24     7     9   ar
    25    11    12   ar
    26    13    14   ar
    27    15    16   ar
    28     1     3    2
    29    17    19   ar
    30    18    20   ar
    31    24    25   ar
    32    26    27   ar
    33    28    29   ar
    34     2     4    1
@<TRIPOS>MOLECULE
MolPort-016-723-833 36752774 MCULE-7202345058 PubChem-93242465 ZINC000036752774 ZINC36752774
 31 34 0 0 0
SMALL
GASTEIGER

@<TRIPOS>ATOM
      1 C           7.1646   40.9378    7.9306 C.2     1  UNL1        0.2887
      2 N           7.0614   41.5364    9.2286 N.am    1  UNL1       -0.2566
      3 O           6.1522   40.4553    7.3563 O.2     1  UNL1       -0.2663
      4 H           7.8909   41.8952    9.6191 H       1  UNL1        0.1572
      5 C          10.6541   40.2675    4.5423 C.3     1  UNL1        0.0738
      6 C           9.9688   40.6048    5.8232 C.ar    1  UNL1        0.1429
      7 C           8.4679   40.8868    7.2615 C.ar    1  UNL1        0.2373
      8 N           8.6372   40.4820    5.9845 N.ar    1  UNL1       -0.2064
      9 N           9.6252   41.2388    7.8545 N.ar    1  UNL1       -0.1397
     10 N          10.5698   41.0604    6.9466 N.ar    1  UNL1       -0.2145
     11 C          11.9644   41.3284    7.1940 C.ar    1  UNL1        0.0842
     12 C          12.6758   40.6495    8.1963 C.ar    1  UNL1        0.0192
     13 C          14.0280   40.9238    8.4205 C.ar    1  UNL1        0.0015
     14 C          14.6843   41.8812    7.6437 C.ar    1  UNL1        0.0001
     15 C          13.9885   42.5639    6.6434 C.ar    1  UNL1        0.0015
     16 C          12.6363   42.2884    6.4203 C.ar    1  UNL1        0.0192
     17 C           5.8701   41.6638   10.0139 C.ar    1  UNL1        0.1881
     18 C           3.7424   42.0806   11.0386 C.ar    1  UNL1        0.1127
     19 N           5.7467   41.0986   11.2339 N.ar    1  UNL1       -0.1256
     20 N           4.5643   41.3284   11.8022 N.ar    1  UNL1       -0.1440
     21 S           4.4681   42.4980    9.5771 S.2     1  UNL1       -0.0347
     22 C           2.3551   42.4517   11.4402 C.3     1  UNL1        0.0592
     23 C           2.0724   42.0168   12.8764 C.3     1  UNL1        0.0334
     24 C           0.8194   42.5978   13.4700 C.ar    1  UNL1       -0.0188
     25 C          -0.3378   41.8124   13.4754 C.ar    1  UNL1       -0.0041
     26 C          -1.5284   42.3112   14.0110 C.ar    1  UNL1        0.0028
     27 C          -1.5695   43.6023   14.5439 C.ar    1  UNL1        0.0369
     28 C          -0.4231   44.4025   14.5432 C.ar    1  UNL1        0.1384
     29 C           0.7693   43.8963   14.0020 C.ar    1  UNL1        0.0326
     30 C           0.1495   46.8077   14.4885 C.3     1  UNL1        0.2525
     31 O          -0.4941   45.6892   15.0837 O.3     1  UNL1       -0.4714
@<TRIPOS>BOND
     1     5     6    1
     2     7     8   ar
     3     7     1    1
     4    12    13   ar
     5    14    15   ar
     6    16    11   ar
     7     1     2   am
     8    17    21   ar
     9    18    21   ar
    10    22    18    1
    11    22    23    1
    12    23    24    1
    13    25    26   ar
    14    27    28   ar
    15    28    31    1
    16    29    24   ar
    17    30    31    1
    18    10     9   ar
    19    10    11    1
    20    10     6   ar
    21     2    17    1
    22    19    20   ar
    23     6     8   ar
    24     7     9   ar
    25    11    12   ar
    26    13    14   ar
    27    15    16   ar
    28     1     3    2
    29    17    19   ar
    30    18    20   ar
    31    24    25   ar
    32    26    27   ar
    33    28    29   ar
    34     2     4    1
@<TRIPOS>MOLECULE
MolPort-016-723-833 36752774 MCULE-7202345058 PubChem-93242465 ZINC000036752774 ZINC36752774
 31 34 0 0 0
SMALL
GASTEIGER

@<TRIPOS>ATOM
      1 C          11.8092   40.0964   10.1632 C.2     1  UNL1        0.2887
      2 N          11.1918   41.1628   10.8949 N.am    1  UNL1       -0.2566
      3 O          11.1395   39.1010    9.7782 O.2     1  UNL1       -0.2663
      4 H          11.7725   41.9109   11.1639 H       1  UNL1        0.1572
      5 C          16.1517   41.6059    8.4400 C.3     1  UNL1        0.0738
      6 C          15.1031   40.7990    9.1279 C.ar    1  UNL1        0.1429
      7 C          13.2414   40.1655    9.8583 C.ar    1  UNL1        0.2373
      8 N          13.8059   41.1614    9.1423 N.ar    1  UNL1       -0.2064
      9 N          14.1356   39.2425   10.2624 N.ar    1  UNL1       -0.1397
     10 N          15.3081   39.6434    9.8012 N.ar    1  UNL1       -0.2145
     11 C          16.5342   38.9185   10.0227 C.ar    1  UNL1        0.0842
     12 C          17.7280   39.5792   10.3545 C.ar    1  UNL1        0.0192
     13 C          18.9066   38.8580   10.5654 C.ar    1  UNL1        0.0015
     14 C          18.9042   37.4664   10.4467 C.ar    1  UNL1        0.0001
     15 C          17.7237   36.7966   10.1172 C.ar    1  UNL1        0.0015
     16 C          16.5458   37.5191    9.9067 C.ar    1  UNL1        0.0192
     17 C           9.8128   41.2473   11.2734 C.ar    1  UNL1        0.1881
     18 C           7.4466   41.5170   11.5556 C.ar    1  UNL1        0.1127
     19 N           9.3788   40.8904   12.5011 N.ar    1  UNL1       -0.1256
     20 N           8.0644   41.0382   12.6573 N.ar    1  UNL1       -0.1440
     21 S           8.5384   41.7771   10.2998 S.2     1  UNL1       -0.0347
     22 C           5.9753   41.7434   11.4690 C.3     1  UNL1        0.0592
     23 C           5.4211   41.2054   10.1518 C.3     1  UNL1        0.0334
     24 C           5.6123   42.1194    8.9737 C.ar    1  UNL1       -0.0188
     25 C           6.5110   41.7335    7.9740 C.ar    1  UNL1       -0.0041
     26 C           6.7267   42.5526    6.8625 C.ar    1  UNL1        0.0028
     27 C           6.0448   43.7666    6.7447 C.ar    1  UNL1        0.0369
     28 C           5.1457   44.1698    7.7364 C.ar    1  UNL1        0.1384
     29 C           4.9349   43.3432    8.8515 C.ar    1  UNL1        0.0326
     30 C           3.0611   45.4957    7.6269 C.3     1  UNL1        0.2525
     31 O           4.4777   45.3885    7.5911 O.3     1  UNL1       -0.4714
@<TRIPOS>BOND
     1     5     6    1
     2     7     8   ar
     3     7     1    1
     4    12    13   ar
     5    14    15   ar
     6    16    11   ar
     7     1     2   am
     8    17    21   ar
     9    18    21   ar
    10    22    18    1
    11    22    23    1
    12    23    24    1
    13    25    26   ar
    14    27    28   ar
    15    28    31    1
    16    29    24   ar
    17    30    31    1
    18    10     9   ar
    19    10    11    1
    20    10     6   ar
    21     2    17    1
    22    19    20   ar
    23     6     8   ar
    24     7     9   ar
    25    11    12   ar
    26    13    14   ar
    27    15    16   ar
    28     1     3    2
    29    17    19   ar
    30    18    20   ar
    31    24    25   ar
    32    26    27   ar
    33    28    29   ar
    34     2     4    1
