@<TRIPOS>MOLECULE
MolPort-007-967-222 CHEMBL5013382 ChemDiv-L497-0043 MCULE-7356281051 PubChem-46385446 ZINC000033129556 ZINC33129556
 26 28 0 0 0
SMALL
GASTEIGER

@<TRIPOS>ATOM
      1 C          11.7616   39.4382    9.4257 C.3     1  UNL1        0.0395
      2 C          12.1590   40.5350    8.5002 C.ar    1  UNL1        0.0224
      3 C          11.3368   41.5354    7.9734 C.ar    1  UNL1        0.0544
      4 C          12.0333   42.5226    7.2654 C.ar    1  UNL1        0.0414
      5 C          13.3966   42.2672    7.2154 C.ar    1  UNL1        0.1526
      6 S          13.7486   40.8638    8.0693 S.2     1  UNL1       -0.0703
      7 C           9.2683   42.6246    8.9867 C.2     1  UNL1        0.2496
      8 N           9.9231   41.6334    8.1850 N.am    1  UNL1       -0.2802
      9 O           9.9303   43.3107    9.8125 O.2     1  UNL1       -0.2698
     10 H           9.3535   40.9634    7.7424 H       1  UNL1        0.1552
     11 C           7.8095   42.8042    8.8856 C.ar    1  UNL1        0.0560
     12 C           6.9464   41.7184    9.0918 C.ar    1  UNL1        0.0365
     13 C           5.5619   41.8859    8.9943 C.ar    1  UNL1        0.1675
     14 C           5.0301   43.1436    8.6887 C.ar    1  UNL1        0.1674
     15 C           5.8841   44.2301    8.4812 C.ar    1  UNL1        0.0321
     16 C           7.2681   44.0614    8.5789 C.ar    1  UNL1        0.0070
     17 F           4.7401   40.8273    9.1965 F       1  UNL1       -0.2018
     18 F           3.6889   43.3136    8.5926 F       1  UNL1       -0.2018
     19 O          14.3910   43.2248    4.9498 O.2     1  UNL1       -0.1523
     20 O          14.4094   44.7087    6.8963 O.2     1  UNL1       -0.1523
     21 S          14.5919   43.2871    6.4381 S.O2    1  UNL1        0.0690
     22 C          16.3676   42.8933    8.2791 C.3     1  UNL1        0.0959
     23 C          17.7108   43.5410    8.5032 C.3     1  UNL1        0.0206
     24 C          17.9384   44.3405    7.2536 C.3     1  UNL1        0.0206
     25 C          17.1496   43.6126    6.1868 C.3     1  UNL1        0.0959
     26 N          16.1860   42.7299    6.8408 N.3     1  UNL1       -0.1551
@<TRIPOS>BOND
     1     1     2    1
     2     2     6   ar
     3     3     8    1
     4     3     4   ar
     5     7    11    1
     6    12    13   ar
     7    13    17    1
     8    14    18    1
     9    14    15   ar
    10    16    11   ar
    11     5     6   ar
    12    22    26    1
    13    22    23    1
    14    23    24    1
    15    24    25    1
    16    25    26    1
    17     8     7   am
    18    21     5    1
    19    21    26    1
    20     2     3   ar
    21     7     9    2
    22    11    12   ar
    23    13    14   ar
    24    15    16   ar
    25     4     5   ar
    26    21    19    2
    27    21    20    2
    28     8    10    1
@<TRIPOS>MOLECULE
MolPort-007-967-222 CHEMBL5013382 ChemDiv-L497-0043 MCULE-7356281051 PubChem-46385446 ZINC000033129556 ZINC33129556
 26 28 0 0 0
SMALL
GASTEIGER

@<TRIPOS>ATOM
      1 C          12.1389   38.9327    7.7930 C.3     1  UNL1        0.0395
      2 C          10.9369   39.7217    7.4056 C.ar    1  UNL1        0.0224
      3 C          10.9116   40.9505    6.7395 C.ar    1  UNL1        0.0544
      4 C           9.6264   41.3632    6.3668 C.ar    1  UNL1        0.0414
      5 C           8.6495   40.4661    6.7759 C.ar    1  UNL1        0.1526
      6 S           9.3619   39.1571    7.5513 S.2     1  UNL1       -0.0703
      7 C          12.9222   42.4196    7.2789 C.2     1  UNL1        0.2496
      8 N          12.0695   41.7099    6.3716 N.am    1  UNL1       -0.2802
      9 O          12.5314   42.6699    8.4518 O.2     1  UNL1       -0.2698
     10 H          12.2988   41.7474    5.4149 H       1  UNL1        0.1552
     11 C          14.2361   42.9060    6.8234 C.ar    1  UNL1        0.0560
     12 C          15.3979   42.5825    7.5387 C.ar    1  UNL1        0.0365
     13 C          16.6456   43.0446    7.1096 C.ar    1  UNL1        0.1675
     14 C          16.7396   43.8360    5.9594 C.ar    1  UNL1        0.1674
     15 C          15.5860   44.1631    5.2418 C.ar    1  UNL1        0.0321
     16 C          14.3392   43.7005    5.6719 C.ar    1  UNL1        0.0070
     17 F          17.7598   42.7235    7.8111 F       1  UNL1       -0.2018
     18 F          17.9458   44.2876    5.5373 F       1  UNL1       -0.2018
     19 O           6.7267   41.5851    5.3303 O.2     1  UNL1       -0.1523
     20 O           6.3589   39.2903    6.0984 O.2     1  UNL1       -0.1523
     21 S           6.9306   40.6306    6.4735 S.O2    1  UNL1        0.0690
     22 C           5.8511   42.6515    7.6770 C.3     1  UNL1        0.0959
     23 C           6.2834   43.4074    8.9081 C.3     1  UNL1        0.0206
     24 C           7.3981   42.5741    9.4698 C.3     1  UNL1        0.0206
     25 C           7.0945   41.1671    9.0026 C.3     1  UNL1        0.0959
     26 N           6.1429   41.2390    7.8959 N.3     1  UNL1       -0.1551
@<TRIPOS>BOND
     1     1     2    1
     2     2     6   ar
     3     3     8    1
     4     3     4   ar
     5     7    11    1
     6    12    13   ar
     7    13    17    1
     8    14    18    1
     9    14    15   ar
    10    16    11   ar
    11     5     6   ar
    12    22    26    1
    13    22    23    1
    14    23    24    1
    15    24    25    1
    16    25    26    1
    17     8     7   am
    18    21     5    1
    19    21    26    1
    20     2     3   ar
    21     7     9    2
    22    11    12   ar
    23    13    14   ar
    24    15    16   ar
    25     4     5   ar
    26    21    19    2
    27    21    20    2
    28     8    10    1
@<TRIPOS>MOLECULE
MolPort-007-967-222 CHEMBL5013382 ChemDiv-L497-0043 MCULE-7356281051 PubChem-46385446 ZINC000033129556 ZINC33129556
 26 28 0 0 0
SMALL
GASTEIGER

@<TRIPOS>ATOM
      1 C          12.2681   37.7762    9.2443 C.3     1  UNL1        0.0395
      2 C          11.3254   38.6516    8.4944 C.ar    1  UNL1        0.0224
      3 C          11.6349   39.8189    7.7901 C.ar    1  UNL1        0.0544
      4 C          10.5629   40.3309    7.0488 C.ar    1  UNL1        0.0414
      5 C           9.4092   39.5756    7.2068 C.ar    1  UNL1        0.1526
      6 S           9.7148   38.2665    8.2145 S.2     1  UNL1       -0.0703
      7 C          13.2735   41.5900    6.9715 C.2     1  UNL1        0.2496
      8 N          12.9330   40.4224    7.7296 N.am    1  UNL1       -0.2802
      9 O          12.5066   41.9980    6.0570 O.2     1  UNL1       -0.2698
     10 H          13.6516   39.9993    8.2529 H       1  UNL1        0.1552
     11 C          14.5487   42.2831    7.2240 C.ar    1  UNL1        0.0560
     12 C          14.8384   43.4918    6.5746 C.ar    1  UNL1        0.0365
     13 C          16.0487   44.1503    6.8109 C.ar    1  UNL1        0.1675
     14 C          16.9800   43.6028    7.7003 C.ar    1  UNL1        0.1674
     15 C          16.6986   42.3983    8.3506 C.ar    1  UNL1        0.0321
     16 C          15.4881   41.7408    8.1134 C.ar    1  UNL1        0.0070
     17 F          16.3146   45.3179    6.1762 F       1  UNL1       -0.2018
     18 F          18.1554   44.2356    7.9344 F       1  UNL1       -0.2018
     19 O           8.1342   40.4034    5.0325 O.2     1  UNL1       -0.1523
     20 O           7.0860   38.6135    6.3320 O.2     1  UNL1       -0.1523
     21 S           7.8741   39.8921    6.4219 S.O2    1  UNL1        0.0690
     22 C           7.0490   42.3387    6.5983 C.3     1  UNL1        0.0959
     23 C           7.3999   43.4253    7.5833 C.3     1  UNL1        0.0206
     24 C           8.1892   42.7113    8.6414 C.3     1  UNL1        0.0206
     25 C           7.6831   41.2858    8.5972 C.3     1  UNL1        0.0959
     26 N           6.9877   41.0775    7.3290 N.3     1  UNL1       -0.1551
@<TRIPOS>BOND
     1     1     2    1
     2     2     6   ar
     3     3     8    1
     4     3     4   ar
     5     7    11    1
     6    12    13   ar
     7    13    17    1
     8    14    18    1
     9    14    15   ar
    10    16    11   ar
    11     5     6   ar
    12    22    26    1
    13    22    23    1
    14    23    24    1
    15    24    25    1
    16    25    26    1
    17     8     7   am
    18    21     5    1
    19    21    26    1
    20     2     3   ar
    21     7     9    2
    22    11    12   ar
    23    13    14   ar
    24    15    16   ar
    25     4     5   ar
    26    21    19    2
    27    21    20    2
    28     8    10    1
@<TRIPOS>MOLECULE
MolPort-007-967-222 CHEMBL5013382 ChemDiv-L497-0043 MCULE-7356281051 PubChem-46385446 ZINC000033129556 ZINC33129556
 26 28 0 0 0
SMALL
GASTEIGER

@<TRIPOS>ATOM
      1 C          10.4737   37.6889    9.0431 C.3     1  UNL1        0.0395
      2 C          11.7529   38.1623    9.6405 C.ar    1  UNL1        0.0224
      3 C          12.0174   39.4247   10.1797 C.ar    1  UNL1        0.0544
      4 C          13.2610   39.5161   10.8171 C.ar    1  UNL1        0.0414
      5 C          13.9762   38.3291   10.7416 C.ar    1  UNL1        0.1526
      6 S          13.0715   37.1650    9.9360 S.2     1  UNL1       -0.0703
      7 C          11.1882   41.6850    9.3459 C.2     1  UNL1        0.2496
      8 N          11.1001   40.5254   10.1834 N.am    1  UNL1       -0.2802
      9 O          12.2651   41.9541    8.7468 O.2     1  UNL1       -0.2698
     10 H          10.3457   40.4814   10.8144 H       1  UNL1        0.1552
     11 C          10.0356   42.5950    9.2282 C.ar    1  UNL1        0.0560
     12 C           9.0586   42.3769    8.2463 C.ar    1  UNL1        0.0365
     13 C           7.9650   43.2402    8.1313 C.ar    1  UNL1        0.1675
     14 C           7.8412   44.3304    8.9997 C.ar    1  UNL1        0.1674
     15 C           8.8113   44.5545    9.9803 C.ar    1  UNL1        0.0321
     16 C           9.9043   43.6907   10.0942 C.ar    1  UNL1        0.0070
     17 F           7.0285   43.0165    7.1775 F       1  UNL1       -0.2018
     18 F           6.7838   45.1716    8.8943 F       1  UNL1       -0.2018
     19 O          15.8524   39.1449   12.4306 O.2     1  UNL1       -0.1523
     20 O          15.5676   36.7296   12.1548 O.2     1  UNL1       -0.1523
     21 S          15.5605   38.0533   11.4394 S.O2    1  UNL1        0.0690
     22 C          17.6713   36.9475   10.4298 C.3     1  UNL1        0.0959
     23 C          19.0805   37.4659   10.2899 C.3     1  UNL1        0.0206
     24 C          18.9694   38.9162   10.6593 C.3     1  UNL1        0.0206
     25 C          17.5427   39.2880   10.3180 C.3     1  UNL1        0.0959
     26 N          16.7606   38.0607   10.1851 N.3     1  UNL1       -0.1551
@<TRIPOS>BOND
     1     1     2    1
     2     2     6   ar
     3     3     8    1
     4     3     4   ar
     5     7    11    1
     6    12    13   ar
     7    13    17    1
     8    14    18    1
     9    14    15   ar
    10    16    11   ar
    11     5     6   ar
    12    22    26    1
    13    22    23    1
    14    23    24    1
    15    24    25    1
    16    25    26    1
    17     8     7   am
    18    21     5    1
    19    21    26    1
    20     2     3   ar
    21     7     9    2
    22    11    12   ar
    23    13    14   ar
    24    15    16   ar
    25     4     5   ar
    26    21    19    2
    27    21    20    2
    28     8    10    1
@<TRIPOS>MOLECULE
MolPort-007-967-222 CHEMBL5013382 ChemDiv-L497-0043 MCULE-7356281051 PubChem-46385446 ZINC000033129556 ZINC33129556
 26 28 0 0 0
SMALL
GASTEIGER

@<TRIPOS>ATOM
      1 C          12.2981   38.3916    8.6972 C.3     1  UNL1        0.0395
      2 C          11.5077   39.6052    9.0433 C.ar    1  UNL1        0.0224
      3 C          11.9642   40.9257    9.0909 C.ar    1  UNL1        0.0544
      4 C          10.9461   41.8674    9.2852 C.ar    1  UNL1        0.0414
      5 C           9.7005   41.2707    9.4223 C.ar    1  UNL1        0.1526
      6 S           9.8428   39.6042    9.2639 S.2     1  UNL1       -0.0703
      7 C          13.8740   41.7658    7.6285 C.2     1  UNL1        0.2496
      8 N          13.3210   41.3344    8.8782 N.am    1  UNL1       -0.2802
      9 O          13.2652   41.5276    6.5498 O.2     1  UNL1       -0.2698
     10 H          13.9241   41.3173    9.6562 H       1  UNL1        0.1552
     11 C          15.1834   42.4404    7.5990 C.ar    1  UNL1        0.0560
     12 C          15.3780   43.5742    6.7971 C.ar    1  UNL1        0.0365
     13 C          16.6202   44.2148    6.7658 C.ar    1  UNL1        0.1675
     14 C          17.6789   43.7241    7.5380 C.ar    1  UNL1        0.1674
     15 C          17.4927   42.5942    8.3390 C.ar    1  UNL1        0.0321
     16 C          16.2503   41.9546    8.3694 C.ar    1  UNL1        0.0070
     17 F          16.7931   45.3098    5.9861 F       1  UNL1       -0.2018
     18 F          18.8860   44.3399    7.5128 F       1  UNL1       -0.2018
     19 O           7.5030   41.5741   10.8775 O.2     1  UNL1       -0.1523
     20 O           8.4670   43.5868    9.8718 O.2     1  UNL1       -0.1523
     21 S           8.1874   42.1240    9.6573 S.O2    1  UNL1        0.0690
     22 C           7.9323   42.3168    7.0892 C.3     1  UNL1        0.0959
     23 C           7.0453   43.2053    6.2540 C.3     1  UNL1        0.0206
     24 C           6.1178   43.8312    7.2541 C.3     1  UNL1        0.0206
     25 C           6.0436   42.8279    8.3846 C.3     1  UNL1        0.0959
     26 N           7.1725   41.9077    8.2655 N.3     1  UNL1       -0.1551
@<TRIPOS>BOND
     1     1     2    1
     2     2     6   ar
     3     3     8    1
     4     3     4   ar
     5     7    11    1
     6    12    13   ar
     7    13    17    1
     8    14    18    1
     9    14    15   ar
    10    16    11   ar
    11     5     6   ar
    12    22    26    1
    13    22    23    1
    14    23    24    1
    15    24    25    1
    16    25    26    1
    17     8     7   am
    18    21     5    1
    19    21    26    1
    20     2     3   ar
    21     7     9    2
    22    11    12   ar
    23    13    14   ar
    24    15    16   ar
    25     4     5   ar
    26    21    19    2
    27    21    20    2
    28     8    10    1
@<TRIPOS>MOLECULE
MolPort-007-967-222 CHEMBL5013382 ChemDiv-L497-0043 MCULE-7356281051 PubChem-46385446 ZINC000033129556 ZINC33129556
 26 28 0 0 0
SMALL
GASTEIGER

@<TRIPOS>ATOM
      1 C          10.2610   41.3451   12.0380 C.3     1  UNL1        0.0395
      2 C           9.5277   41.6761   10.7850 C.ar    1  UNL1        0.0224
      3 C           9.5067   40.9378    9.5981 C.ar    1  UNL1        0.0544
      4 C           8.5929   41.4178    8.6517 C.ar    1  UNL1        0.0414
      5 C           7.9279   42.5526    9.0951 C.ar    1  UNL1        0.1526
      6 S           8.4273   42.9380   10.6522 S.2     1  UNL1       -0.0703
      7 C          11.6913   39.6715    9.2581 C.2     1  UNL1        0.2496
      8 N          10.2636   39.7450    9.3587 N.am    1  UNL1       -0.2802
      9 O          12.3689   40.7197    9.0763 O.2     1  UNL1       -0.2698
     10 H           9.7606   38.9052    9.2546 H       1  UNL1        0.1552
     11 C          12.3646   38.3622    9.3119 C.ar    1  UNL1        0.0560
     12 C          11.8058   37.3083   10.0492 C.ar    1  UNL1        0.0365
     13 C          12.4439   36.0656   10.1034 C.ar    1  UNL1        0.1675
     14 C          13.6485   35.8683    9.4193 C.ar    1  UNL1        0.1674
     15 C          14.2118   36.9141    8.6831 C.ar    1  UNL1        0.0321
     16 C          13.5729   38.1561    8.6297 C.ar    1  UNL1        0.0070
     17 F          11.8917   35.0564   10.8199 F       1  UNL1       -0.2018
     18 F          14.2728   34.6663    9.4673 F       1  UNL1       -0.2018
     19 O           6.5707   44.8084    8.7667 O.2     1  UNL1       -0.1523
     20 O           7.1085   43.5221    6.7549 O.2     1  UNL1       -0.1523
     21 S           6.6978   43.4225    8.1989 S.O2    1  UNL1        0.0690
     22 C           4.2745   43.4314    9.1074 C.3     1  UNL1        0.0959
     23 C           3.6107   42.5602   10.1439 C.3     1  UNL1        0.0206
     24 C           4.6146   41.4740   10.3983 C.3     1  UNL1        0.0206
     25 C           5.4012   41.3729    9.1094 C.3     1  UNL1        0.0959
     26 N           5.1800   42.5903    8.3320 N.3     1  UNL1       -0.1551
@<TRIPOS>BOND
     1     1     2    1
     2     2     6   ar
     3     3     8    1
     4     3     4   ar
     5     7    11    1
     6    12    13   ar
     7    13    17    1
     8    14    18    1
     9    14    15   ar
    10    16    11   ar
    11     5     6   ar
    12    22    26    1
    13    22    23    1
    14    23    24    1
    15    24    25    1
    16    25    26    1
    17     8     7   am
    18    21     5    1
    19    21    26    1
    20     2     3   ar
    21     7     9    2
    22    11    12   ar
    23    13    14   ar
    24    15    16   ar
    25     4     5   ar
    26    21    19    2
    27    21    20    2
    28     8    10    1
@<TRIPOS>MOLECULE
MolPort-007-967-222 CHEMBL5013382 ChemDiv-L497-0043 MCULE-7356281051 PubChem-46385446 ZINC000033129556 ZINC33129556
 26 28 0 0 0
SMALL
GASTEIGER

@<TRIPOS>ATOM
      1 C          10.0578   42.6720   10.5157 C.3     1  UNL1        0.0395
      2 C           9.8701   42.0959    9.1554 C.ar    1  UNL1        0.0224
      3 C          10.8434   41.9326    8.1654 C.ar    1  UNL1        0.0544
      4 C          10.3991   41.2084    7.0522 C.ar    1  UNL1        0.0414
      5 C           9.0662   40.8387    7.1664 C.ar    1  UNL1        0.1526
      6 S           8.4510   41.3600    8.6402 S.2     1  UNL1       -0.0703
      7 C          13.3514   41.6288    7.8343 C.2     1  UNL1        0.2496
      8 N          12.2042   42.3685    8.2709 N.am    1  UNL1       -0.2802
      9 O          13.2556   40.3945    7.5930 O.2     1  UNL1       -0.2698
     10 H          12.3647   43.2506    8.6777 H       1  UNL1        0.1552
     11 C          14.6579   42.2999    7.7202 C.ar    1  UNL1        0.0560
     12 C          14.7821   43.4877    6.9852 C.ar    1  UNL1        0.0365
     13 C          16.0213   44.1253    6.8737 C.ar    1  UNL1        0.1675
     14 C          17.1474   43.5775    7.4979 C.ar    1  UNL1        0.1674
     15 C          17.0315   42.3937    8.2315 C.ar    1  UNL1        0.0321
     16 C          15.7921   41.7571    8.3421 C.ar    1  UNL1        0.0070
     17 F          16.1258   45.2728    6.1602 F       1  UNL1       -0.2018
     18 F          18.3520   44.1900    7.3943 F       1  UNL1       -0.2018
     19 O           8.1180   38.4723    6.4318 O.2     1  UNL1       -0.1523
     20 O           6.7627   40.4380    5.8930 O.2     1  UNL1       -0.1523
     21 S           8.1674   39.9065    5.9847 S.O2    1  UNL1        0.0690
     22 C           9.0146   38.6706    3.8747 C.3     1  UNL1        0.0959
     23 C          10.4148   38.4557    3.3578 C.3     1  UNL1        0.0206
     24 C          11.2594   39.3422    4.2256 C.3     1  UNL1        0.0206
     25 C          10.3258   40.4513    4.6598 C.3     1  UNL1        0.0959
     26 N           8.9490   40.0146    4.4384 N.3     1  UNL1       -0.1551
@<TRIPOS>BOND
     1     1     2    1
     2     2     6   ar
     3     3     8    1
     4     3     4   ar
     5     7    11    1
     6    12    13   ar
     7    13    17    1
     8    14    18    1
     9    14    15   ar
    10    16    11   ar
    11     5     6   ar
    12    22    26    1
    13    22    23    1
    14    23    24    1
    15    24    25    1
    16    25    26    1
    17     8     7   am
    18    21     5    1
    19    21    26    1
    20     2     3   ar
    21     7     9    2
    22    11    12   ar
    23    13    14   ar
    24    15    16   ar
    25     4     5   ar
    26    21    19    2
    27    21    20    2
    28     8    10    1
@<TRIPOS>MOLECULE
MolPort-007-967-222 CHEMBL5013382 ChemDiv-L497-0043 MCULE-7356281051 PubChem-46385446 ZINC000033129556 ZINC33129556
 26 28 0 0 0
SMALL
GASTEIGER

@<TRIPOS>ATOM
      1 C          10.9230   38.7178    8.3369 C.3     1  UNL1        0.0395
      2 C          10.1761   39.9984    8.1967 C.ar    1  UNL1        0.0224
      3 C          10.7158   41.2815    8.0673 C.ar    1  UNL1        0.0544
      4 C           9.7627   42.2681    7.7862 C.ar    1  UNL1        0.0414
      5 C           8.4756   41.7518    7.7310 C.ar    1  UNL1        0.1526
      6 S           8.5128   40.0912    7.9834 S.2     1  UNL1       -0.0703
      7 C          12.9577   41.8266    6.9864 C.2     1  UNL1        0.2496
      8 N          12.1130   41.5946    8.1206 N.am    1  UNL1       -0.2802
      9 O          12.5843   41.4726    5.8348 O.2     1  UNL1       -0.2698
     10 H          12.5277   41.6554    9.0115 H       1  UNL1        0.1552
     11 C          14.2887   42.4299    7.1735 C.ar    1  UNL1        0.0560
     12 C          14.5923   43.6695    6.5925 C.ar    1  UNL1        0.0365
     13 C          15.8553   44.2430    6.7669 C.ar    1  UNL1        0.1675
     14 C          16.8257   43.5785    7.5250 C.ar    1  UNL1        0.1674
     15 C          16.5306   42.3425    8.1064 C.ar    1  UNL1        0.0321
     16 C          15.2675   41.7701    7.9313 C.ar    1  UNL1        0.0070
     17 F          16.1341   45.4418    6.1995 F       1  UNL1       -0.2018
     18 F          18.0523   44.1284    7.6984 F       1  UNL1       -0.2018
     19 O           7.2264   44.0894    7.8491 O.2     1  UNL1       -0.1523
     20 O           6.7831   42.6802    5.8975 O.2     1  UNL1       -0.1523
     21 S           7.0265   42.6746    7.3823 S.O2    1  UNL1        0.0690
     22 C           4.7676   43.0479    8.5888 C.3     1  UNL1        0.0959
     23 C           4.3757   42.8326   10.0290 C.3     1  UNL1        0.0206
     24 C           5.5470   42.1005   10.6157 C.3     1  UNL1        0.0206
     25 C           6.1626   41.3661    9.4445 C.3     1  UNL1        0.0959
     26 N           5.6718   41.9685    8.2069 N.3     1  UNL1       -0.1551
@<TRIPOS>BOND
     1     1     2    1
     2     2     6   ar
     3     3     8    1
     4     3     4   ar
     5     7    11    1
     6    12    13   ar
     7    13    17    1
     8    14    18    1
     9    14    15   ar
    10    16    11   ar
    11     5     6   ar
    12    22    26    1
    13    22    23    1
    14    23    24    1
    15    24    25    1
    16    25    26    1
    17     8     7   am
    18    21     5    1
    19    21    26    1
    20     2     3   ar
    21     7     9    2
    22    11    12   ar
    23    13    14   ar
    24    15    16   ar
    25     4     5   ar
    26    21    19    2
    27    21    20    2
    28     8    10    1
@<TRIPOS>MOLECULE
MolPort-007-967-222 CHEMBL5013382 ChemDiv-L497-0043 MCULE-7356281051 PubChem-46385446 ZINC000033129556 ZINC33129556
 26 28 0 0 0
SMALL
GASTEIGER

@<TRIPOS>ATOM
      1 C          11.0330   39.9016    5.4241 C.3     1  UNL1        0.0395
      2 C          10.4545   40.6029    6.6035 C.ar    1  UNL1        0.0224
      3 C          11.1450   41.3364    7.5727 C.ar    1  UNL1        0.0544
      4 C          10.3088   42.0177    8.4658 C.ar    1  UNL1        0.0414
      5 C           8.9654   41.7834    8.2073 C.ar    1  UNL1        0.1526
      6 S           8.8057   40.7823    6.8676 S.2     1  UNL1       -0.0703
      7 C          13.3483   42.3927    6.8504 C.2     1  UNL1        0.2496
      8 N          12.5693   41.4804    7.6344 N.am    1  UNL1       -0.2802
      9 O          12.8512   42.9307    5.8235 O.2     1  UNL1       -0.2698
     10 H          13.0535   40.9040    8.2689 H       1  UNL1        0.1552
     11 C          14.7508   42.6603    7.2134 C.ar    1  UNL1        0.0560
     12 C          15.4281   41.8088    8.0980 C.ar    1  UNL1        0.0365
     13 C          16.7584   42.0618    8.4455 C.ar    1  UNL1        0.1675
     14 C          17.4217   43.1712    7.9095 C.ar    1  UNL1        0.1674
     15 C          16.7529   44.0246    7.0279 C.ar    1  UNL1        0.0321
     16 C          15.4229   43.7707    6.6812 C.ar    1  UNL1        0.0070
     17 F          17.4001   41.2298    9.3016 F       1  UNL1       -0.2018
     18 F          18.7113   43.4228    8.2418 F       1  UNL1       -0.2018
     19 O           7.2942   41.5824   10.2580 O.2     1  UNL1       -0.1523
     20 O           8.0223   43.8314    9.6231 O.2     1  UNL1       -0.1523
     21 S           7.6249   42.4787    9.0975 S.O2    1  UNL1        0.0690
     22 C           6.2076   43.9934    7.5500 C.3     1  UNL1        0.0959
     23 C           4.7952   44.5007    7.6970 C.3     1  UNL1        0.0206
     24 C           4.2551   43.7295    8.8657 C.3     1  UNL1        0.0206
     25 C           5.0448   42.4385    8.8679 C.3     1  UNL1        0.0959
     26 N           6.2446   42.6252    8.0548 N.3     1  UNL1       -0.1551
@<TRIPOS>BOND
     1     1     2    1
     2     2     6   ar
     3     3     8    1
     4     3     4   ar
     5     7    11    1
     6    12    13   ar
     7    13    17    1
     8    14    18    1
     9    14    15   ar
    10    16    11   ar
    11     5     6   ar
    12    22    26    1
    13    22    23    1
    14    23    24    1
    15    24    25    1
    16    25    26    1
    17     8     7   am
    18    21     5    1
    19    21    26    1
    20     2     3   ar
    21     7     9    2
    22    11    12   ar
    23    13    14   ar
    24    15    16   ar
    25     4     5   ar
    26    21    19    2
    27    21    20    2
    28     8    10    1
@<TRIPOS>MOLECULE
MolPort-007-967-222 CHEMBL5013382 ChemDiv-L497-0043 MCULE-7356281051 PubChem-46385446 ZINC000033129556 ZINC33129556
 26 28 0 0 0
SMALL
GASTEIGER

@<TRIPOS>ATOM
      1 C          13.7919   38.7130   10.8733 C.3     1  UNL1        0.0395
      2 C          14.3132   39.6690    9.8576 C.ar    1  UNL1        0.0224
      3 C          13.5862   40.3134    8.8523 C.ar    1  UNL1        0.0544
      4 C          14.3215   41.2816    8.1574 C.ar    1  UNL1        0.0414
      5 C          15.6330   41.3633    8.6044 C.ar    1  UNL1        0.1526
      6 S          15.8753   40.2857    9.8703 S.2     1  UNL1       -0.0703
      7 C          11.2116   41.1320    8.4247 C.2     1  UNL1        0.2496
      8 N          12.1957   40.1017    8.5794 N.am    1  UNL1       -0.2802
      9 O          11.4546   42.3051    8.8194 O.2     1  UNL1       -0.2698
     10 H          11.8905   39.1699    8.4906 H       1  UNL1        0.1552
     11 C           9.8927   40.8078    7.8540 C.ar    1  UNL1        0.0560
     12 C           8.7234   41.0556    8.5874 C.ar    1  UNL1        0.0365
     13 C           7.4708   40.7469    8.0487 C.ar    1  UNL1        0.1675
     14 C           7.3791   40.1865    6.7699 C.ar    1  UNL1        0.1674
     15 C           8.5400   39.9361    6.0333 C.ar    1  UNL1        0.0321
     16 C           9.7918   40.2451    6.5730 C.ar    1  UNL1        0.0070
     17 F           6.3495   40.9923    8.7693 F       1  UNL1       -0.2018
     18 F           6.1683   39.8847    6.2411 F       1  UNL1       -0.2018
     19 O          16.9988   43.6095    8.9622 O.2     1  UNL1       -0.1523
     20 O          18.1625   41.7530    7.8712 O.2     1  UNL1       -0.1523
     21 S          16.8460   42.4712    7.9925 S.O2    1  UNL1        0.0690
     22 C          16.6880   44.4987    6.3919 C.3     1  UNL1        0.0959
     23 C          15.4867   45.2368    5.8570 C.3     1  UNL1        0.0206
     24 C          14.3249   44.3808    6.2688 C.3     1  UNL1        0.0206
     25 C          14.8967   42.9830    6.3647 C.3     1  UNL1        0.0959
     26 N          16.3527   43.0798    6.4432 N.3     1  UNL1       -0.1551
@<TRIPOS>BOND
     1     1     2    1
     2     2     6   ar
     3     3     8    1
     4     3     4   ar
     5     7    11    1
     6    12    13   ar
     7    13    17    1
     8    14    18    1
     9    14    15   ar
    10    16    11   ar
    11     5     6   ar
    12    22    26    1
    13    22    23    1
    14    23    24    1
    15    24    25    1
    16    25    26    1
    17     8     7   am
    18    21     5    1
    19    21    26    1
    20     2     3   ar
    21     7     9    2
    22    11    12   ar
    23    13    14   ar
    24    15    16   ar
    25     4     5   ar
    26    21    19    2
    27    21    20    2
    28     8    10    1
