@<TRIPOS>MOLECULE
MolPort-010-903-878 ChemDiv-M535-1267 MCULE-9362355103 PubChem-53145991 ZINC000065165952 ZINC65165952
 33 36 0 0 0
SMALL
GASTEIGER

@<TRIPOS>ATOM
      1 C          13.0715   39.7849    9.0866 C.ar    1  UNL1        0.0667
      2 C          13.0367   41.1395    8.6719 C.ar    1  UNL1        0.0534
      3 C          11.9059   41.9177    8.9681 C.ar    1  UNL1        0.0293
      4 C          10.8141   41.3802    9.6514 C.ar    1  UNL1        0.0515
      5 C          10.8432   40.0350   10.0328 C.ar    1  UNL1        0.0149
      6 C          11.9608   39.2487    9.7542 C.ar    1  UNL1        0.0070
      7 C          15.4592   41.5405    8.3144 C.3     1  UNL1        0.0908
      8 C          16.2675   42.8312    8.1979 C.3     1  UNL1        0.0214
      9 C          16.2541   43.4176    6.7916 C.3     1  UNL1        0.0018
     10 C          14.9534   44.1811    6.5703 C.3     1  UNL1        0.0018
     11 C          13.8136   43.3198    6.0169 C.3     1  UNL1        0.0214
     12 C          13.8641   41.8517    6.4331 C.3     1  UNL1        0.0908
     13 N          14.0789   41.7130    7.8694 N.pl3   1  UNL1       -0.3073
     14 C          14.2527   38.9154    8.9079 C.2     1  UNL1        0.2473
     15 O          15.3792   39.4376    8.6839 O.2     1  UNL1       -0.2701
     16 N          14.1144   37.4916    8.8897 N.am    1  UNL1       -0.2968
     17 H          13.2392   37.0953    9.1045 H       1  UNL1        0.1501
     18 C          15.2274   36.6086    8.5636 C.3     1  UNL1        0.1196
     19 C          16.2892   37.2492   10.8062 C.ar    1  UNL1        0.1363
     20 C          16.4088   36.8983    9.4339 C.ar    1  UNL1        0.0314
     21 C          17.6784   36.8522    8.8427 C.ar    1  UNL1        0.0004
     22 C          18.8209   37.1612    9.5807 C.ar    1  UNL1       -0.0001
     23 C          18.7050   37.5237   10.9214 C.ar    1  UNL1        0.0031
     24 C          17.4477   37.5672   11.5257 C.ar    1  UNL1        0.0366
     25 C          14.5818   38.4428   12.2045 C.3     1  UNL1        0.2525
     26 O          15.0757   37.3063   11.5105 O.3     1  UNL1       -0.4717
     27 C           9.7055   43.6498   10.0981 C.2     1  UNL1        0.2256
     28 O          10.7871   44.2961   10.0579 O.2     1  UNL1       -0.2748
     29 N           9.6889   42.2251    9.9278 N.am    1  UNL1       -0.2839
     30 H           8.8138   41.7814   10.0091 H       1  UNL1        0.1549
     31 C           8.4276   44.3714   10.3788 C.3     1  UNL1        0.0768
     32 C           8.0318   45.2105    9.1771 C.3     1  UNL1        0.0096
     33 C           7.3421   43.8901    9.4330 C.3     1  UNL1        0.0096
@<TRIPOS>BOND
     1    25    26    1
     2    19    26    1
     3    20    21   ar
     4    18    20    1
     5    18    16    1
     6    14     1    1
     7     1     2   ar
     8     2    13    1
     9     3     4   ar
    10     4    29    1
    11    31    27    1
    12    31    32    1
    13    32    33    1
    14    33    31    1
    15     5     6   ar
    16     7    13    1
    17     7     8    1
    18     8     9    1
    19     9    10    1
    20    10    11    1
    21    11    12    1
    22    12    13    1
    23    22    23   ar
    24    24    19   ar
    25    16    14   am
    26    29    27   am
    27    19    20   ar
    28    14    15    2
    29     2     3   ar
    30     4     5   ar
    31    27    28    2
    32     6     1   ar
    33    21    22   ar
    34    23    24   ar
    35    16    17    1
    36    29    30    1
@<TRIPOS>MOLECULE
MolPort-010-903-878 ChemDiv-M535-1267 MCULE-9362355103 PubChem-53145991 ZINC000065165952 ZINC65165952
 33 36 0 0 0
SMALL
GASTEIGER

@<TRIPOS>ATOM
      1 C          11.6278   40.7944    7.0866 C.ar    1  UNL1        0.0667
      2 C          12.7081   40.4936    7.9529 C.ar    1  UNL1        0.0534
      3 C          13.9102   41.2079    7.8225 C.ar    1  UNL1        0.0293
      4 C          14.0638   42.1981    6.8510 C.ar    1  UNL1        0.0515
      5 C          13.0033   42.4704    5.9810 C.ar    1  UNL1        0.0149
      6 C          11.7994   41.7766    6.1003 C.ar    1  UNL1        0.0070
      7 C          13.7934   38.5108    8.9766 C.3     1  UNL1        0.0908
      8 C          13.3709   37.0446    9.0435 C.3     1  UNL1        0.0214
      9 C          12.4089   36.7534   10.1887 C.3     1  UNL1        0.0018
     10 C          10.9983   37.1688    9.7872 C.3     1  UNL1        0.0018
     11 C          10.6594   38.6244   10.1244 C.3     1  UNL1        0.0214
     12 C          11.8521   39.5775   10.1051 C.3     1  UNL1        0.0908
     13 N          12.6465   39.4111    8.8929 N.pl3   1  UNL1       -0.3073
     14 C          10.2955   40.1674    7.2088 C.2     1  UNL1        0.2473
     15 O          10.1565   38.9457    6.9254 O.2     1  UNL1       -0.2701
     16 N           9.1487   40.9516    7.5499 N.am    1  UNL1       -0.2968
     17 H           9.2751   41.8935    7.8069 H       1  UNL1        0.1501
     18 C           7.7990   40.4012    7.5294 C.3     1  UNL1        0.1196
     19 C           7.5526   41.4477    9.8556 C.ar    1  UNL1        0.1363
     20 C           6.9801   40.9588    8.6497 C.ar    1  UNL1        0.0314
     21 C           5.5869   40.9569    8.4999 C.ar    1  UNL1        0.0004
     22 C           4.7583   41.4139    9.5246 C.ar    1  UNL1       -0.0001
     23 C           5.3161   41.8763   10.7151 C.ar    1  UNL1        0.0031
     24 C           6.7024   41.8908   10.8761 C.ar    1  UNL1        0.0366
     25 C           9.6203   42.6669   10.5861 C.3     1  UNL1        0.2525
     26 O           8.9318   41.5195   10.1101 O.3     1  UNL1       -0.4717
     27 C          15.5157   44.2492    6.3362 C.2     1  UNL1        0.2256
     28 O          14.5509   44.9520    5.9307 O.2     1  UNL1       -0.2748
     29 N          15.3139   42.8957    6.7682 N.am    1  UNL1       -0.2839
     30 H          16.1175   42.3938    7.0357 H       1  UNL1        0.1549
     31 C          16.8978   44.8166    6.3180 C.3     1  UNL1        0.0768
     32 C          17.7651   44.1010    7.3380 C.3     1  UNL1        0.0096
     33 C          17.8877   43.7559    5.8715 C.3     1  UNL1        0.0096
@<TRIPOS>BOND
     1    25    26    1
     2    19    26    1
     3    20    21   ar
     4    18    20    1
     5    18    16    1
     6    14     1    1
     7     1     2   ar
     8     2    13    1
     9     3     4   ar
    10     4    29    1
    11    31    27    1
    12    31    32    1
    13    32    33    1
    14    33    31    1
    15     5     6   ar
    16     7    13    1
    17     7     8    1
    18     8     9    1
    19     9    10    1
    20    10    11    1
    21    11    12    1
    22    12    13    1
    23    22    23   ar
    24    24    19   ar
    25    16    14   am
    26    29    27   am
    27    19    20   ar
    28    14    15    2
    29     2     3   ar
    30     4     5   ar
    31    27    28    2
    32     6     1   ar
    33    21    22   ar
    34    23    24   ar
    35    16    17    1
    36    29    30    1
@<TRIPOS>MOLECULE
MolPort-010-903-878 ChemDiv-M535-1267 MCULE-9362355103 PubChem-53145991 ZINC000065165952 ZINC65165952
 33 36 0 0 0
SMALL
GASTEIGER

@<TRIPOS>ATOM
      1 C          10.8261   41.3410    7.4396 C.ar    1  UNL1        0.0667
      2 C          11.4066   42.0891    8.4938 C.ar    1  UNL1        0.0534
      3 C          12.6658   42.6804    8.3016 C.ar    1  UNL1        0.0293
      4 C          13.3591   42.5358    7.0989 C.ar    1  UNL1        0.0515
      5 C          12.7930   41.7725    6.0728 C.ar    1  UNL1        0.0149
      6 C          11.5400   41.1843    6.2427 C.ar    1  UNL1        0.0070
      7 C          11.0299   41.0887   10.7331 C.3     1  UNL1        0.0908
      8 C           9.7515   40.6605   11.4508 C.3     1  UNL1        0.0214
      9 C           9.0539   41.8126   12.1633 C.3     1  UNL1        0.0018
     10 C           8.2475   42.6221   11.1543 C.3     1  UNL1        0.0018
     11 C           9.0371   43.7579   10.4956 C.3     1  UNL1        0.0214
     12 C          10.5346   43.4955   10.3555 C.3     1  UNL1        0.0908
     13 N          10.7928   42.1766    9.7879 N.pl3   1  UNL1       -0.3073
     14 C           9.4676   40.7643    7.5110 C.2     1  UNL1        0.2473
     15 O           9.2681   39.5923    7.0883 O.2     1  UNL1       -0.2701
     16 N           8.3630   41.5533    7.9627 N.am    1  UNL1       -0.2968
     17 H           8.5364   42.4515    8.3265 H       1  UNL1        0.1501
     18 C           6.9889   41.0704    7.9016 C.3     1  UNL1        0.1196
     19 C           4.9018   42.0567    9.0143 C.ar    1  UNL1        0.1363
     20 C           6.0222   42.1845    8.1487 C.ar    1  UNL1        0.0314
     21 C           6.2265   43.3872    7.4593 C.ar    1  UNL1        0.0004
     22 C           5.3359   44.4512    7.6012 C.ar    1  UNL1       -0.0001
     23 C           4.2264   44.3222    8.4346 C.ar    1  UNL1        0.0031
     24 C           4.0137   43.1327    9.1332 C.ar    1  UNL1        0.0366
     25 C           4.8470   40.7648   11.1644 C.3     1  UNL1        0.2525
     26 O           4.6079   40.9116    9.7722 O.3     1  UNL1       -0.4717
     27 C          14.9488   44.3198    6.1663 C.2     1  UNL1        0.2256
     28 O          14.0681   44.8715    5.4527 O.2     1  UNL1       -0.2748
     29 N          14.6401   43.1654    6.9607 N.am    1  UNL1       -0.2839
     30 H          15.3853   42.7638    7.4633 H       1  UNL1        0.1549
     31 C          16.3477   44.8443    6.1445 C.3     1  UNL1        0.0768
     32 C          17.1887   44.1199    7.1801 C.3     1  UNL1        0.0096
     33 C          17.3063   43.7464    5.7202 C.3     1  UNL1        0.0096
@<TRIPOS>BOND
     1    25    26    1
     2    19    26    1
     3    20    21   ar
     4    18    20    1
     5    18    16    1
     6    14     1    1
     7     1     2   ar
     8     2    13    1
     9     3     4   ar
    10     4    29    1
    11    31    27    1
    12    31    32    1
    13    32    33    1
    14    33    31    1
    15     5     6   ar
    16     7    13    1
    17     7     8    1
    18     8     9    1
    19     9    10    1
    20    10    11    1
    21    11    12    1
    22    12    13    1
    23    22    23   ar
    24    24    19   ar
    25    16    14   am
    26    29    27   am
    27    19    20   ar
    28    14    15    2
    29     2     3   ar
    30     4     5   ar
    31    27    28    2
    32     6     1   ar
    33    21    22   ar
    34    23    24   ar
    35    16    17    1
    36    29    30    1
@<TRIPOS>MOLECULE
MolPort-010-903-878 ChemDiv-M535-1267 MCULE-9362355103 PubChem-53145991 ZINC000065165952 ZINC65165952
 33 36 0 0 0
SMALL
GASTEIGER

@<TRIPOS>ATOM
      1 C          10.9814   41.8790    6.6348 C.ar    1  UNL1        0.0667
      2 C          11.5301   41.9466    7.9396 C.ar    1  UNL1        0.0534
      3 C          12.9046   42.1901    8.0930 C.ar    1  UNL1        0.0293
      4 C          13.7399   42.3550    6.9870 C.ar    1  UNL1        0.0515
      5 C          13.1969   42.2590    5.7018 C.ar    1  UNL1        0.0149
      6 C          11.8328   42.0255    5.5300 C.ar    1  UNL1        0.0070
      7 C           9.8659   42.7295    9.6053 C.3     1  UNL1        0.0908
      8 C           9.9406   42.8722   11.1241 C.3     1  UNL1        0.0214
      9 C           9.6416   41.5720   11.8600 C.3     1  UNL1        0.0018
     10 C          10.8827   40.6870   11.8558 C.3     1  UNL1        0.0018
     11 C          10.9783   39.7564   10.6424 C.3     1  UNL1        0.0214
     12 C          10.3302   40.2986    9.3707 C.3     1  UNL1        0.0908
     13 N          10.7427   41.6729    9.1076 N.pl3   1  UNL1       -0.3073
     14 C           9.5354   41.7244    6.3736 C.2     1  UNL1        0.2473
     15 O           9.1440   40.8571    5.5449 O.2     1  UNL1       -0.2701
     16 N           8.5866   42.6101    6.9752 N.am    1  UNL1       -0.2968
     17 H           8.8989   43.2562    7.6492 H       1  UNL1        0.1501
     18 C           7.1723   42.5868    6.6228 C.3     1  UNL1        0.1196
     19 C           5.2980   43.3611    8.1894 C.ar    1  UNL1        0.1363
     20 C           6.3222   42.4377    7.8442 C.ar    1  UNL1        0.0314
     21 C           6.5867   41.3537    8.6918 C.ar    1  UNL1        0.0004
     22 C           5.8682   41.1809    9.8747 C.ar    1  UNL1       -0.0001
     23 C           4.8763   42.0950   10.2250 C.ar    1  UNL1        0.0031
     24 C           4.5968   43.1757    9.3871 C.ar    1  UNL1        0.0366
     25 C           3.7307   45.2164    7.5594 C.3     1  UNL1        0.2525
     26 O           4.9290   44.4690    7.4093 O.3     1  UNL1       -0.4717
     27 C          15.8523   43.8073    6.8953 C.2     1  UNL1        0.2256
     28 O          15.2792   44.7771    6.3293 O.2     1  UNL1       -0.2748
     29 N          15.1349   42.6042    7.2068 N.am    1  UNL1       -0.2839
     30 H          15.6545   41.8738    7.6138 H       1  UNL1        0.1549
     31 C          17.3127   43.8920    7.1996 C.3     1  UNL1        0.0768
     32 C          17.5313   43.8640    8.7017 C.3     1  UNL1        0.0096
     33 C          17.7745   42.6172    7.8824 C.3     1  UNL1        0.0096
@<TRIPOS>BOND
     1    25    26    1
     2    19    26    1
     3    20    21   ar
     4    18    20    1
     5    18    16    1
     6    14     1    1
     7     1     2   ar
     8     2    13    1
     9     3     4   ar
    10     4    29    1
    11    31    27    1
    12    31    32    1
    13    32    33    1
    14    33    31    1
    15     5     6   ar
    16     7    13    1
    17     7     8    1
    18     8     9    1
    19     9    10    1
    20    10    11    1
    21    11    12    1
    22    12    13    1
    23    22    23   ar
    24    24    19   ar
    25    16    14   am
    26    29    27   am
    27    19    20   ar
    28    14    15    2
    29     2     3   ar
    30     4     5   ar
    31    27    28    2
    32     6     1   ar
    33    21    22   ar
    34    23    24   ar
    35    16    17    1
    36    29    30    1
@<TRIPOS>MOLECULE
MolPort-010-903-878 ChemDiv-M535-1267 MCULE-9362355103 PubChem-53145991 ZINC000065165952 ZINC65165952
 33 36 0 0 0
SMALL
GASTEIGER

@<TRIPOS>ATOM
      1 C          11.4431   40.9932    7.4479 C.ar    1  UNL1        0.0667
      2 C          12.5255   40.7348    8.3251 C.ar    1  UNL1        0.0534
      3 C          13.7643   41.3509    8.0848 C.ar    1  UNL1        0.0293
      4 C          13.9518   42.2019    6.9945 C.ar    1  UNL1        0.0515
      5 C          12.8873   42.4304    6.1167 C.ar    1  UNL1        0.0149
      6 C          11.6476   41.8334    6.3437 C.ar    1  UNL1        0.0070
      7 C          13.0994   40.0902   10.6516 C.3     1  UNL1        0.0908
      8 C          13.8453   38.8823   11.2149 C.3     1  UNL1        0.0214
      9 C          12.9503   37.6634   11.4013 C.3     1  UNL1        0.0018
     10 C          12.7650   36.9578   10.0629 C.3     1  UNL1        0.0018
     11 C          11.5731   37.4720    9.2491 C.3     1  UNL1        0.0214
     12 C          11.2334   38.9431    9.4760 C.3     1  UNL1        0.0908
     13 N          12.4235   39.7827    9.3940 N.pl3   1  UNL1       -0.3073
     14 C          10.0793   40.4706    7.6717 C.2     1  UNL1        0.2473
     15 O           9.7160   39.4139    7.0858 O.2     1  UNL1       -0.2701
     16 N           9.1395   41.2006    8.4658 N.am    1  UNL1       -0.2968
     17 H           9.4454   42.0019    8.9492 H       1  UNL1        0.1501
     18 C           7.7438   40.7965    8.5823 C.3     1  UNL1        0.1196
     19 C           5.6785   42.1481    9.2715 C.ar    1  UNL1        0.1363
     20 C           6.8360   41.9792    8.4637 C.ar    1  UNL1        0.0314
     21 C           7.1365   42.9334    7.4825 C.ar    1  UNL1        0.0004
     22 C           6.3057   44.0354    7.2806 C.ar    1  UNL1       -0.0001
     23 C           5.1602   44.1937    8.0585 C.ar    1  UNL1        0.0031
     24 C           4.8518   43.2551    9.0444 C.ar    1  UNL1        0.0366
     25 C           4.0307   40.6207   10.3883 C.3     1  UNL1        0.2525
     26 O           5.2895   41.2723   10.2980 O.3     1  UNL1       -0.4717
     27 C          15.5037   44.1628    6.4235 C.2     1  UNL1        0.2256
     28 O          14.5620   44.9626    6.1733 O.2     1  UNL1       -0.2748
     29 N          15.2388   42.8044    6.8025 N.am    1  UNL1       -0.2839
     30 H          16.0223   42.2257    6.9457 H       1  UNL1        0.1549
     31 C          16.9177   44.6214    6.2729 C.3     1  UNL1        0.0768
     32 C          17.7911   43.9619    7.3249 C.3     1  UNL1        0.0096
     33 C          17.8067   43.4476    5.9037 C.3     1  UNL1        0.0096
@<TRIPOS>BOND
     1    25    26    1
     2    19    26    1
     3    20    21   ar
     4    18    20    1
     5    18    16    1
     6    14     1    1
     7     1     2   ar
     8     2    13    1
     9     3     4   ar
    10     4    29    1
    11    31    27    1
    12    31    32    1
    13    32    33    1
    14    33    31    1
    15     5     6   ar
    16     7    13    1
    17     7     8    1
    18     8     9    1
    19     9    10    1
    20    10    11    1
    21    11    12    1
    22    12    13    1
    23    22    23   ar
    24    24    19   ar
    25    16    14   am
    26    29    27   am
    27    19    20   ar
    28    14    15    2
    29     2     3   ar
    30     4     5   ar
    31    27    28    2
    32     6     1   ar
    33    21    22   ar
    34    23    24   ar
    35    16    17    1
    36    29    30    1
@<TRIPOS>MOLECULE
MolPort-010-903-878 ChemDiv-M535-1267 MCULE-9362355103 PubChem-53145991 ZINC000065165952 ZINC65165952
 33 36 0 0 0
SMALL
GASTEIGER

@<TRIPOS>ATOM
      1 C          10.2614   41.6186    8.1443 C.ar    1  UNL1        0.0667
      2 C          10.0623   40.8260    9.3020 C.ar    1  UNL1        0.0534
      3 C           8.8788   40.9797   10.0421 C.ar    1  UNL1        0.0293
      4 C           7.9029   41.9040    9.6661 C.ar    1  UNL1        0.0515
      5 C           8.1185   42.7029    8.5387 C.ar    1  UNL1        0.0149
      6 C           9.2842   42.5589    7.7868 C.ar    1  UNL1        0.0070
      7 C          11.7530   40.3064   11.0423 C.3     1  UNL1        0.0908
      8 C          13.2640   40.0997   10.9590 C.3     1  UNL1        0.0214
      9 C          13.6501   38.6793   10.5653 C.3     1  UNL1        0.0018
     10 C          13.5180   38.5154    9.0555 C.3     1  UNL1        0.0018
     11 C          12.1279   38.0610    8.5990 C.3     1  UNL1        0.0214
     12 C          10.9808   38.5190    9.4966 C.3     1  UNL1        0.0908
     13 N          11.0780   39.9428    9.7992 N.pl3   1  UNL1       -0.3073
     14 C          11.4258   41.4618    7.2484 C.2     1  UNL1        0.2473
     15 O          11.3105   40.7757    6.1956 O.2     1  UNL1       -0.2701
     16 N          12.7023   41.9965    7.6106 N.am    1  UNL1       -0.2968
     17 H          12.7713   42.5624    8.4132 H       1  UNL1        0.1501
     18 C          13.9042   41.7306    6.8298 C.3     1  UNL1        0.1196
     19 C          15.6423   43.5745    7.2118 C.ar    1  UNL1        0.1363
     20 C          15.1141   42.2886    7.5091 C.ar    1  UNL1        0.0314
     21 C          15.7625   41.4784    8.4507 C.ar    1  UNL1        0.0004
     22 C          16.9259   41.9131    9.0856 C.ar    1  UNL1       -0.0001
     23 C          17.4564   43.1656    8.7823 C.ar    1  UNL1        0.0031
     24 C          16.8176   43.9866    7.8517 C.ar    1  UNL1        0.0366
     25 C          14.8341   44.2278    4.9281 C.3     1  UNL1        0.2525
     26 O          15.0681   44.4809    6.3059 O.3     1  UNL1       -0.4717
     27 C           5.3709   42.1700    9.9789 C.2     1  UNL1        0.2256
     28 O           5.1308   42.2732    8.7456 O.2     1  UNL1       -0.2748
     29 N           6.7137   42.0136   10.4600 N.am    1  UNL1       -0.2839
     30 H           6.8308   41.9777   11.4368 H       1  UNL1        0.1549
     31 C           4.2458   42.2641   10.9576 C.3     1  UNL1        0.0768
     32 C           3.0983   41.3741   10.5148 C.3     1  UNL1        0.0096
     33 C           4.0218   40.9170   11.6206 C.3     1  UNL1        0.0096
@<TRIPOS>BOND
     1    25    26    1
     2    19    26    1
     3    20    21   ar
     4    18    20    1
     5    18    16    1
     6    14     1    1
     7     1     2   ar
     8     2    13    1
     9     3     4   ar
    10     4    29    1
    11    31    27    1
    12    31    32    1
    13    32    33    1
    14    33    31    1
    15     5     6   ar
    16     7    13    1
    17     7     8    1
    18     8     9    1
    19     9    10    1
    20    10    11    1
    21    11    12    1
    22    12    13    1
    23    22    23   ar
    24    24    19   ar
    25    16    14   am
    26    29    27   am
    27    19    20   ar
    28    14    15    2
    29     2     3   ar
    30     4     5   ar
    31    27    28    2
    32     6     1   ar
    33    21    22   ar
    34    23    24   ar
    35    16    17    1
    36    29    30    1
@<TRIPOS>MOLECULE
MolPort-010-903-878 ChemDiv-M535-1267 MCULE-9362355103 PubChem-53145991 ZINC000065165952 ZINC65165952
 33 36 0 0 0
SMALL
GASTEIGER

@<TRIPOS>ATOM
      1 C          12.7418   40.2165    9.5704 C.ar    1  UNL1        0.0667
      2 C          12.7891   41.3426    8.7116 C.ar    1  UNL1        0.0534
      3 C          11.6089   42.0596    8.4564 C.ar    1  UNL1        0.0293
      4 C          10.3915   41.6779    9.0224 C.ar    1  UNL1        0.0515
      5 C          10.3467   40.5488    9.8464 C.ar    1  UNL1        0.0149
      6 C          11.5099   39.8289   10.1174 C.ar    1  UNL1        0.0070
      7 C          15.2570   41.1863    8.5058 C.3     1  UNL1        0.0908
      8 C          16.3478   42.2547    8.5434 C.3     1  UNL1        0.0214
      9 C          16.5643   42.9328    7.1962 C.3     1  UNL1        0.0018
     10 C          15.4933   43.9963    6.9831 C.3     1  UNL1        0.0018
     11 C          14.2246   43.4731    6.3018 C.3     1  UNL1        0.0214
     12 C          13.9063   42.0073    6.5870 C.3     1  UNL1        0.0908
     13 N          13.9869   41.7131    8.0136 N.pl3   1  UNL1       -0.3073
     14 C          13.9436   39.4584    9.9756 C.2     1  UNL1        0.2473
     15 O          14.5777   39.8071   11.0093 O.2     1  UNL1       -0.2701
     16 N          14.4482   38.3990    9.1573 N.am    1  UNL1       -0.2968
     17 H          13.9243   38.1103    8.3754 H       1  UNL1        0.1501
     18 C          15.7129   37.7332    9.4438 C.3     1  UNL1        0.1196
     19 C          14.4447   35.5276    9.1368 C.ar    1  UNL1        0.1363
     20 C          15.6464   36.2848    9.0771 C.ar    1  UNL1        0.0314
     21 C          16.8388   35.6555    8.6955 C.ar    1  UNL1        0.0004
     22 C          16.8616   34.2948    8.3898 C.ar    1  UNL1       -0.0001
     23 C          15.6886   33.5460    8.4655 C.ar    1  UNL1        0.0031
     24 C          14.4919   34.1606    8.8372 C.ar    1  UNL1        0.0366
     25 C          12.4005   35.6353   10.5876 C.3     1  UNL1        0.2525
     26 O          13.1892   36.0529    9.4827 O.3     1  UNL1       -0.4717
     27 C           8.0092   42.5032    9.4946 C.2     1  UNL1        0.2256
     28 O           7.8627   41.7929   10.5257 O.2     1  UNL1       -0.2748
     29 N           9.2205   42.4512    8.7272 N.am    1  UNL1       -0.2839
     30 H           9.2509   43.0041    7.9131 H       1  UNL1        0.1549
     31 C           6.8849   43.3737    9.0355 C.3     1  UNL1        0.0768
     32 C           7.3744   44.7993    8.8541 C.3     1  UNL1        0.0096
     33 C           7.1796   43.9112    7.6466 C.3     1  UNL1        0.0096
@<TRIPOS>BOND
     1    25    26    1
     2    19    26    1
     3    20    21   ar
     4    18    20    1
     5    18    16    1
     6    14     1    1
     7     1     2   ar
     8     2    13    1
     9     3     4   ar
    10     4    29    1
    11    31    27    1
    12    31    32    1
    13    32    33    1
    14    33    31    1
    15     5     6   ar
    16     7    13    1
    17     7     8    1
    18     8     9    1
    19     9    10    1
    20    10    11    1
    21    11    12    1
    22    12    13    1
    23    22    23   ar
    24    24    19   ar
    25    16    14   am
    26    29    27   am
    27    19    20   ar
    28    14    15    2
    29     2     3   ar
    30     4     5   ar
    31    27    28    2
    32     6     1   ar
    33    21    22   ar
    34    23    24   ar
    35    16    17    1
    36    29    30    1
@<TRIPOS>MOLECULE
MolPort-010-903-878 ChemDiv-M535-1267 MCULE-9362355103 PubChem-53145991 ZINC000065165952 ZINC65165952
 33 36 0 0 0
SMALL
GASTEIGER

@<TRIPOS>ATOM
      1 C          14.7777   39.5538   10.2750 C.ar    1  UNL1        0.0667
      2 C          14.3684   40.6622    9.4927 C.ar    1  UNL1        0.0534
      3 C          13.0129   41.0292    9.4811 C.ar    1  UNL1        0.0293
      4 C          12.0624   40.3177   10.2148 C.ar    1  UNL1        0.0515
      5 C          12.4687   39.2077   10.9622 C.ar    1  UNL1        0.0149
      6 C          13.8117   38.8329   10.9920 C.ar    1  UNL1        0.0070
      7 C          16.7089   41.2469    8.9122 C.3     1  UNL1        0.0908
      8 C          17.4233   42.5931    8.8123 C.3     1  UNL1        0.0214
      9 C          17.2200   43.2771    7.4660 C.3     1  UNL1        0.0018
     10 C          15.8609   43.9670    7.4451 C.3     1  UNL1        0.0018
     11 C          14.7183   43.0744    6.9501 C.3     1  UNL1        0.0214
     12 C          14.8994   41.5867    7.2417 C.3     1  UNL1        0.0908
     13 N          15.2801   41.3594    8.6315 N.pl3   1  UNL1       -0.3073
     14 C          16.1910   39.1509   10.4281 C.2     1  UNL1        0.2473
     15 O          16.9239   39.7610   11.2544 O.2     1  UNL1       -0.2701
     16 N          16.7587   38.1457    9.5832 N.am    1  UNL1       -0.2968
     17 H          16.1689   37.6498    8.9704 H       1  UNL1        0.1501
     18 C          18.1821   37.8319    9.6002 C.3     1  UNL1        0.1196
     19 C          17.7333   35.5419    8.5412 C.ar    1  UNL1        0.1363
     20 C          18.4028   36.3565    9.4947 C.ar    1  UNL1        0.0314
     21 C          19.2845   35.7642   10.4086 C.ar    1  UNL1        0.0004
     22 C          19.4993   34.3860   10.4024 C.ar    1  UNL1       -0.0001
     23 C          18.8300   33.5827    9.4809 C.ar    1  UNL1        0.0031
     24 C          17.9541   34.1594    8.5599 C.ar    1  UNL1        0.0366
     25 C          16.5753   35.3958    6.3202 C.3     1  UNL1        0.2525
     26 O          16.8473   36.0244    7.5643 O.3     1  UNL1       -0.4717
     27 C           9.9062   41.2323   11.2607 C.2     1  UNL1        0.2256
     28 O          10.3796   41.2866   12.4278 O.2     1  UNL1       -0.2748
     29 N          10.6935   40.7421   10.1658 N.am    1  UNL1       -0.2839
     30 H          10.2474   40.6918    9.2896 H       1  UNL1        0.1549
     31 C           8.4873   41.6357   11.0231 C.3     1  UNL1        0.0768
     32 C           8.4426   42.9367   10.2420 C.3     1  UNL1        0.0096
     33 C           8.1878   41.6253    9.5350 C.3     1  UNL1        0.0096
@<TRIPOS>BOND
     1    25    26    1
     2    19    26    1
     3    20    21   ar
     4    18    20    1
     5    18    16    1
     6    14     1    1
     7     1     2   ar
     8     2    13    1
     9     3     4   ar
    10     4    29    1
    11    31    27    1
    12    31    32    1
    13    32    33    1
    14    33    31    1
    15     5     6   ar
    16     7    13    1
    17     7     8    1
    18     8     9    1
    19     9    10    1
    20    10    11    1
    21    11    12    1
    22    12    13    1
    23    22    23   ar
    24    24    19   ar
    25    16    14   am
    26    29    27   am
    27    19    20   ar
    28    14    15    2
    29     2     3   ar
    30     4     5   ar
    31    27    28    2
    32     6     1   ar
    33    21    22   ar
    34    23    24   ar
    35    16    17    1
    36    29    30    1
@<TRIPOS>MOLECULE
MolPort-010-903-878 ChemDiv-M535-1267 MCULE-9362355103 PubChem-53145991 ZINC000065165952 ZINC65165952
 33 36 0 0 0
SMALL
GASTEIGER

@<TRIPOS>ATOM
      1 C          12.7114   40.0542    9.5193 C.ar    1  UNL1        0.0667
      2 C          12.6971   41.1905    8.6728 C.ar    1  UNL1        0.0534
      3 C          11.4823   41.8550    8.4387 C.ar    1  UNL1        0.0293
      4 C          10.2903   41.4116    9.0137 C.ar    1  UNL1        0.0515
      5 C          10.3069   40.2729    9.8255 C.ar    1  UNL1        0.0149
      6 C          11.5051   39.6045   10.0755 C.ar    1  UNL1        0.0070
      7 C          15.1710   41.2116    8.4822 C.3     1  UNL1        0.0908
      8 C          16.1788   42.3592    8.4837 C.3     1  UNL1        0.0214
      9 C          16.3530   43.0008    7.1127 C.3     1  UNL1        0.0018
     10 C          15.2070   43.9726    6.8557 C.3     1  UNL1        0.0018
     11 C          13.9855   43.3309    6.1899 C.3     1  UNL1        0.0214
     12 C          13.7754   41.8571    6.5288 C.3     1  UNL1        0.0908
     13 N          13.8684   41.6232    7.9658 N.pl3   1  UNL1       -0.3073
     14 C          13.9514   39.3480    9.9028 C.2     1  UNL1        0.2473
     15 O          14.6069   39.7453   10.9050 O.2     1  UNL1       -0.2701
     16 N          14.4648   38.2846    9.0952 N.am    1  UNL1       -0.2968
     17 H          13.9256   37.9577    8.3391 H       1  UNL1        0.1501
     18 C          15.7605   37.6695    9.3554 C.3     1  UNL1        0.1196
     19 C          16.8336   35.6426    8.2121 C.ar    1  UNL1        0.1363
     20 C          15.7619   36.2343    8.9348 C.ar    1  UNL1        0.0314
     21 C          14.6323   35.4652    9.2443 C.ar    1  UNL1        0.0004
     22 C          14.5423   34.1338    8.8384 C.ar    1  UNL1       -0.0001
     23 C          15.5833   33.5566    8.1135 C.ar    1  UNL1        0.0031
     24 C          16.7179   34.3082    7.8039 C.ar    1  UNL1        0.0366
     25 C          19.2171   36.3039    8.6328 C.3     1  UNL1        0.2525
     26 O          18.0219   36.3058    7.8655 O.3     1  UNL1       -0.4717
     27 C           8.2997   42.8866    9.6782 C.2     1  UNL1        0.2256
     28 O           8.6164   42.9339   10.8975 O.2     1  UNL1       -0.2748
     29 N           9.0817   42.1333    8.7401 N.am    1  UNL1       -0.2839
     30 H           8.7544   42.1094    7.8119 H       1  UNL1        0.1549
     31 C           7.0625   43.5827    9.2122 C.3     1  UNL1        0.0768
     32 C           7.3962   45.0000    8.7826 C.3     1  UNL1        0.0096
     33 C           7.1855   43.9272    7.7389 C.3     1  UNL1        0.0096
@<TRIPOS>BOND
     1    25    26    1
     2    19    26    1
     3    20    21   ar
     4    18    20    1
     5    18    16    1
     6    14     1    1
     7     1     2   ar
     8     2    13    1
     9     3     4   ar
    10     4    29    1
    11    31    27    1
    12    31    32    1
    13    32    33    1
    14    33    31    1
    15     5     6   ar
    16     7    13    1
    17     7     8    1
    18     8     9    1
    19     9    10    1
    20    10    11    1
    21    11    12    1
    22    12    13    1
    23    22    23   ar
    24    24    19   ar
    25    16    14   am
    26    29    27   am
    27    19    20   ar
    28    14    15    2
    29     2     3   ar
    30     4     5   ar
    31    27    28    2
    32     6     1   ar
    33    21    22   ar
    34    23    24   ar
    35    16    17    1
    36    29    30    1
@<TRIPOS>MOLECULE
MolPort-010-903-878 ChemDiv-M535-1267 MCULE-9362355103 PubChem-53145991 ZINC000065165952 ZINC65165952
 33 36 0 0 0
SMALL
GASTEIGER

@<TRIPOS>ATOM
      1 C          10.9621   41.3244    9.2031 C.ar    1  UNL1        0.0667
      2 C          10.0033   41.2224    8.1647 C.ar    1  UNL1        0.0534
      3 C           8.7849   41.9099    8.2873 C.ar    1  UNL1        0.0293
      4 C           8.4971   42.6805    9.4149 C.ar    1  UNL1        0.0515
      5 C           9.4362   42.7540   10.4486 C.ar    1  UNL1        0.0149
      6 C          10.6548   42.0844   10.3411 C.ar    1  UNL1        0.0070
      7 C          11.2284   40.7151    6.0673 C.3     1  UNL1        0.0908
      8 C          10.7482   40.5474    4.6272 C.3     1  UNL1        0.0214
      9 C          10.2345   39.1439    4.3302 C.3     1  UNL1        0.0018
     10 C           8.8085   39.0027    4.8500 C.3     1  UNL1        0.0018
     11 C           8.7211   38.5219    6.3021 C.3     1  UNL1        0.0214
     12 C           9.8977   38.9359    7.1826 C.3     1  UNL1        0.0908
     13 N          10.1971   40.3562    7.0372 N.pl3   1  UNL1       -0.3073
     14 C          12.3075   40.7190    9.1228 C.2     1  UNL1        0.2473
     15 O          12.4984   39.5661    9.5986 O.2     1  UNL1       -0.2701
     16 N          13.4123   41.4630    8.6008 N.am    1  UNL1       -0.2968
     17 H          13.2443   42.3451    8.1969 H       1  UNL1        0.1501
     18 C          14.7788   40.9576    8.6474 C.3     1  UNL1        0.1196
     19 C          17.1267   41.9579    8.4159 C.ar    1  UNL1        0.1363
     20 C          15.7389   41.9696    8.1081 C.ar    1  UNL1        0.0314
     21 C          15.2222   42.9870    7.2950 C.ar    1  UNL1        0.0004
     22 C          16.0501   43.9940    6.7990 C.ar    1  UNL1       -0.0001
     23 C          17.4076   43.9956    7.1145 C.ar    1  UNL1        0.0031
     24 C          17.9379   42.9846    7.9175 C.ar    1  UNL1        0.0366
     25 C          17.0969   40.0233   10.0133 C.3     1  UNL1        0.2525
     26 O          17.7602   40.9796    9.1993 O.3     1  UNL1       -0.4717
     27 C           6.5971   44.0905    8.4241 C.2     1  UNL1        0.2256
     28 O           7.1539   44.2291    7.3016 O.2     1  UNL1       -0.2748
     29 N           7.2372   43.3620    9.4818 N.am    1  UNL1       -0.2839
     30 H           6.7618   43.3264   10.3432 H       1  UNL1        0.1549
     31 C           5.2741   44.7383    8.6738 C.3     1  UNL1        0.0768
     32 C           4.3443   44.4864    7.5004 C.3     1  UNL1        0.0096
     33 C           4.1892   43.6808    8.7699 C.3     1  UNL1        0.0096
@<TRIPOS>BOND
     1    25    26    1
     2    19    26    1
     3    20    21   ar
     4    18    20    1
     5    18    16    1
     6    14     1    1
     7     1     2   ar
     8     2    13    1
     9     3     4   ar
    10     4    29    1
    11    31    27    1
    12    31    32    1
    13    32    33    1
    14    33    31    1
    15     5     6   ar
    16     7    13    1
    17     7     8    1
    18     8     9    1
    19     9    10    1
    20    10    11    1
    21    11    12    1
    22    12    13    1
    23    22    23   ar
    24    24    19   ar
    25    16    14   am
    26    29    27   am
    27    19    20   ar
    28    14    15    2
    29     2     3   ar
    30     4     5   ar
    31    27    28    2
    32     6     1   ar
    33    21    22   ar
    34    23    24   ar
    35    16    17    1
    36    29    30    1
