@<TRIPOS>MOLECULE
MolPort-002-465-660 CSC000683401 CSSS00000683401 MCULE-2578394939 PubChem-3822736 Z56960310
 22 22 0 0 0
SMALL
GASTEIGER

@<TRIPOS>ATOM
      1 C          11.1873   41.3774    7.8815 C.ar    1  UNL1        0.0915
      2 C          12.1152   41.2673    6.8406 C.ar    1  UNL1        0.0864
      3 C           9.8592   40.4205    6.2003 C.ar    1  UNL1        0.0051
      4 C           8.6655   39.8590    5.5091 C.3     1  UNL1        0.0379
      5 C           9.9092   40.8916    7.5106 C.ar    1  UNL1       -0.0122
      6 S          11.3682   40.5911    5.4902 S.2     1  UNL1       -0.0767
      7 C          14.0117   42.9532    6.4987 C.2     1  UNL1        0.2431
      8 O          13.2667   43.8476    6.0189 O.2     1  UNL1       -0.2734
      9 N          13.4838   41.6904    6.9189 N.am    1  UNL1       -0.2778
     10 H          14.1246   41.0476    7.3001 H       1  UNL1        0.1554
     11 C          15.4635   43.2261    6.6663 C.3     1  UNL1        0.1797
     12 CL         15.8064   44.9240    6.2591 Cl      1  UNL1       -0.1033
     13 C          11.5187   41.9532    9.2079 C.2     1  UNL1        0.3426
     14 O          11.0066   43.0463    9.5735 O.2     1  UNL1       -0.2448
     15 O          12.4051   41.2829   10.0578 O.3     1  UNL1       -0.4454
     16 C          13.3764   39.4134   11.2374 C.3     1  UNL1        0.0513
     17 C          12.1289   39.9965   10.5991 C.3     1  UNL1        0.2089
     18 C           8.7219   40.8348    8.4256 C.3     1  UNL1        0.0268
     19 C           7.5891   41.7149    7.9078 C.3     1  UNL1        0.0044
     20 C           6.2763   41.3197    8.5599 C.3     1  UNL1        0.0003
     21 C           7.8746   43.2060    8.0922 C.3     1  UNL1        0.0003
     22 C           6.6656   44.0753    7.7764 C.3     1  UNL1        0.0000
@<TRIPOS>BOND
     1    16    17    1
     2    17    15    1
     3    13    15    1
     4    13     1    1
     5     2     9    1
     6     2     6   ar
     7    11     7    1
     8    11    12    1
     9     3     6   ar
    10     4     3    1
    11     5     1   ar
    12    18     5    1
    13    18    19    1
    14    19    21    1
    15    19    20    1
    16    21    22    1
    17     9     7   am
    18    13    14    2
    19     1     2   ar
    20     7     8    2
    21     3     5   ar
    22     9    10    1
@<TRIPOS>MOLECULE
MolPort-002-465-660 CSC000683401 CSSS00000683401 MCULE-2578394939 PubChem-3822736 Z56960310
 22 22 0 0 0
SMALL
GASTEIGER

@<TRIPOS>ATOM
      1 C          12.3406   41.0961    8.6966 C.ar    1  UNL1        0.0915
      2 C          11.1995   41.1870    9.5004 C.ar    1  UNL1        0.0864
      3 C          13.0658   39.9776   10.6276 C.ar    1  UNL1        0.0051
      4 C          13.9543   39.2380   11.5665 C.3     1  UNL1        0.0379
      5 C          13.3951   40.4053    9.3431 C.ar    1  UNL1       -0.0122
      6 S          11.4922   40.4358   10.9799 S.2     1  UNL1       -0.0767
      7 C           9.5408   43.1371    9.5404 C.2     1  UNL1        0.2431
      8 O          10.2396   43.8486   10.3088 O.2     1  UNL1       -0.2734
      9 N           9.9817   41.8421    9.1180 N.am    1  UNL1       -0.2778
     10 H           9.3896   41.3517    8.5032 H       1  UNL1        0.1554
     11 C           8.2479   43.6663    9.0317 C.3     1  UNL1        0.1797
     12 CL          8.1208   45.4016    9.4044 Cl      1  UNL1       -0.1033
     13 C          12.4226   41.6761    7.3336 C.2     1  UNL1        0.3426
     14 O          11.7859   41.1520    6.3792 O.2     1  UNL1       -0.2448
     15 O          13.2111   42.8086    7.1035 O.3     1  UNL1       -0.4454
     16 C          14.4688   44.4391    5.8428 C.3     1  UNL1        0.0513
     17 C          13.8959   43.0341    5.8770 C.3     1  UNL1        0.2089
     18 C          14.7267   40.1089    8.7194 C.3     1  UNL1        0.0268
     19 C          15.8032   41.0471    9.2550 C.3     1  UNL1        0.0044
     20 C          16.9409   40.2481    9.8647 C.3     1  UNL1        0.0003
     21 C          16.3147   42.0195    8.1911 C.3     1  UNL1        0.0003
     22 C          17.3845   42.9608    8.7266 C.3     1  UNL1        0.0000
@<TRIPOS>BOND
     1    16    17    1
     2    17    15    1
     3    13    15    1
     4    13     1    1
     5     2     9    1
     6     2     6   ar
     7    11     7    1
     8    11    12    1
     9     3     6   ar
    10     4     3    1
    11     5     1   ar
    12    18     5    1
    13    18    19    1
    14    19    21    1
    15    19    20    1
    16    21    22    1
    17     9     7   am
    18    13    14    2
    19     1     2   ar
    20     7     8    2
    21     3     5   ar
    22     9    10    1
@<TRIPOS>MOLECULE
MolPort-002-465-660 CSC000683401 CSSS00000683401 MCULE-2578394939 PubChem-3822736 Z56960310
 22 22 0 0 0
SMALL
GASTEIGER

@<TRIPOS>ATOM
      1 C          11.1108   41.2006    7.8585 C.ar    1  UNL1        0.0915
      2 C          12.0925   41.1503    6.8634 C.ar    1  UNL1        0.0864
      3 C           9.9027   40.2438    6.0891 C.ar    1  UNL1        0.0051
      4 C           8.7655   39.6603    5.3247 C.3     1  UNL1        0.0379
      5 C           9.8707   40.6812    7.4116 C.ar    1  UNL1       -0.0122
      6 S          11.4380   40.4851    5.4606 S.2     1  UNL1       -0.0767
      7 C          13.9514   42.8947    6.6244 C.2     1  UNL1        0.2431
      8 O          13.2087   43.7619    6.0937 O.2     1  UNL1       -0.2734
      9 N          13.4396   41.6179    7.0213 N.am    1  UNL1       -0.2778
     10 H          14.0763   40.9983    7.4454 H       1  UNL1        0.1554
     11 C          15.3808   43.2155    6.8775 C.3     1  UNL1        0.1797
     12 CL         16.0563   42.0623    8.0523 Cl      1  UNL1       -0.1033
     13 C          11.3553   41.7518    9.2139 C.2     1  UNL1        0.3426
     14 O          11.8773   41.0329   10.1092 O.2     1  UNL1       -0.2448
     15 O          11.0040   43.0749    9.5029 O.3     1  UNL1       -0.4454
     16 C           9.0675   44.3755   10.1257 C.3     1  UNL1        0.0513
     17 C          10.1572   43.4269   10.5906 C.3     1  UNL1        0.2089
     18 C           8.6424   40.5593    8.2637 C.3     1  UNL1        0.0268
     19 C           7.4821   41.3498    7.6680 C.3     1  UNL1        0.0044
     20 C           6.3016   41.3507    8.6226 C.3     1  UNL1        0.0003
     21 C           7.8824   42.7734    7.2779 C.3     1  UNL1        0.0003
     22 C           6.7858   43.4985    6.5105 C.3     1  UNL1        0.0000
@<TRIPOS>BOND
     1    16    17    1
     2    17    15    1
     3    13    15    1
     4    13     1    1
     5     2     9    1
     6     2     6   ar
     7    11     7    1
     8    11    12    1
     9     3     6   ar
    10     4     3    1
    11     5     1   ar
    12    18     5    1
    13    18    19    1
    14    19    21    1
    15    19    20    1
    16    21    22    1
    17     9     7   am
    18    13    14    2
    19     1     2   ar
    20     7     8    2
    21     3     5   ar
    22     9    10    1
@<TRIPOS>MOLECULE
MolPort-002-465-660 CSC000683401 CSSS00000683401 MCULE-2578394939 PubChem-3822736 Z56960310
 22 22 0 0 0
SMALL
GASTEIGER

@<TRIPOS>ATOM
      1 C          10.4987   41.9339    8.1571 C.ar    1  UNL1        0.0915
      2 C           9.2003   42.1261    7.6736 C.ar    1  UNL1        0.0864
      3 C          10.6089   40.7831    6.1152 C.ar    1  UNL1        0.0051
      4 C          11.1569   39.9691    4.9948 C.3     1  UNL1        0.0379
      5 C          11.2932   41.1725    7.2647 C.ar    1  UNL1       -0.0122
      6 S           9.0379   41.3646    6.1795 S.2     1  UNL1       -0.0767
      7 C           7.1508   43.6576    7.7731 C.2     1  UNL1        0.2431
      8 O           7.0660   43.7943    6.5243 O.2     1  UNL1       -0.2734
      9 N           8.1695   42.8448    8.3659 N.am    1  UNL1       -0.2778
     10 H           8.1620   42.7718    9.3476 H       1  UNL1        0.1554
     11 C           6.1512   44.3240    8.6489 C.3     1  UNL1        0.1797
     12 CL          4.6855   44.6973    7.7117 Cl      1  UNL1       -0.1033
     13 C          10.9659   42.4611    9.4626 C.2     1  UNL1        0.3426
     14 O          10.9850   43.7038    9.6776 O.2     1  UNL1       -0.2448
     15 O          11.3896   41.5771   10.4608 O.3     1  UNL1       -0.4454
     16 C           9.3792   41.2741   11.7632 C.3     1  UNL1        0.0513
     17 C          10.5317   40.6012   11.0403 C.3     1  UNL1        0.2089
     18 C          12.7393   40.8403    7.4845 C.3     1  UNL1        0.0268
     19 C          13.6050   42.0943    7.4197 C.3     1  UNL1        0.0044
     20 C          15.0103   41.7885    7.9059 C.3     1  UNL1        0.0003
     21 C          13.6238   42.7217    6.0250 C.3     1  UNL1        0.0003
     22 C          14.3651   44.0507    5.9927 C.3     1  UNL1        0.0000
@<TRIPOS>BOND
     1    16    17    1
     2    17    15    1
     3    13    15    1
     4    13     1    1
     5     2     9    1
     6     2     6   ar
     7    11     7    1
     8    11    12    1
     9     3     6   ar
    10     4     3    1
    11     5     1   ar
    12    18     5    1
    13    18    19    1
    14    19    21    1
    15    19    20    1
    16    21    22    1
    17     9     7   am
    18    13    14    2
    19     1     2   ar
    20     7     8    2
    21     3     5   ar
    22     9    10    1
@<TRIPOS>MOLECULE
MolPort-002-465-660 CSC000683401 CSSS00000683401 MCULE-2578394939 PubChem-3822736 Z56960310
 22 22 0 0 0
SMALL
GASTEIGER

@<TRIPOS>ATOM
      1 C           8.2113   42.3258    8.6743 C.ar    1  UNL1        0.0915
      2 C           7.3647   42.3212    9.7877 C.ar    1  UNL1        0.0864
      3 C           9.7008   41.6673   10.3635 C.ar    1  UNL1        0.0051
      4 C          10.9672   41.2578   11.0317 C.3     1  UNL1        0.0379
      5 C           9.5357   41.9506    9.0093 C.ar    1  UNL1       -0.0122
      6 S           8.2376   41.8702   11.1564 S.2     1  UNL1       -0.0767
      7 C           4.8914   41.9146   10.3104 C.2     1  UNL1        0.2431
      8 O           5.0935   40.8313   10.9194 O.2     1  UNL1       -0.2734
      9 N           5.9736   42.6710    9.7569 N.am    1  UNL1       -0.2778
     10 H           5.7397   43.5165    9.3101 H       1  UNL1        0.1554
     11 C           3.5047   42.4381   10.1947 C.3     1  UNL1        0.1797
     12 CL          2.6276   42.1575   11.7173 Cl      1  UNL1       -0.1033
     13 C           7.7592   42.6985    7.3114 C.2     1  UNL1        0.3426
     14 O           7.4463   43.8918    7.0483 O.2     1  UNL1       -0.2448
     15 O           7.6771   41.7227    6.3123 O.3     1  UNL1       -0.4454
     16 C           7.1387   39.3730    6.1752 C.3     1  UNL1        0.0513
     17 C           6.6039   40.7922    6.2308 C.3     1  UNL1        0.2089
     18 C          10.6582   41.8185    8.0232 C.3     1  UNL1        0.0268
     19 C          10.7027   40.4146    7.4291 C.3     1  UNL1        0.0044
     20 C          12.1410   39.9855    7.2014 C.3     1  UNL1        0.0003
     21 C           9.9464   39.3939    8.2807 C.3     1  UNL1        0.0003
     22 C          10.8469   38.2777    8.7909 C.3     1  UNL1        0.0000
@<TRIPOS>BOND
     1    16    17    1
     2    17    15    1
     3    13    15    1
     4    13     1    1
     5     2     9    1
     6     2     6   ar
     7    11     7    1
     8    11    12    1
     9     3     6   ar
    10     4     3    1
    11     5     1   ar
    12    18     5    1
    13    18    19    1
    14    19    21    1
    15    19    20    1
    16    21    22    1
    17     9     7   am
    18    13    14    2
    19     1     2   ar
    20     7     8    2
    21     3     5   ar
    22     9    10    1
@<TRIPOS>MOLECULE
MolPort-002-465-660 CSC000683401 CSSS00000683401 MCULE-2578394939 PubChem-3822736 Z56960310
 22 22 0 0 0
SMALL
GASTEIGER

@<TRIPOS>ATOM
      1 C           9.7665   42.3661    8.7205 C.ar    1  UNL1        0.0915
      2 C           8.5562   42.1051    8.0697 C.ar    1  UNL1        0.0864
      3 C          10.5303   41.3302    6.7585 C.ar    1  UNL1        0.0051
      4 C          11.4654   40.7570    5.7511 C.3     1  UNL1        0.0379
      5 C          10.8830   41.9255    7.9680 C.ar    1  UNL1       -0.0122
      6 S           8.8614   41.3398    6.5999 S.2     1  UNL1       -0.0767
      7 C           6.3604   43.4216    8.0984 C.2     1  UNL1        0.2431
      8 O           6.6468   44.1182    7.0894 O.2     1  UNL1       -0.2734
      9 N           7.2606   42.4257    8.5959 N.am    1  UNL1       -0.2778
     10 H           6.9603   41.9088    9.3781 H       1  UNL1        0.1554
     11 C           5.0453   43.6111    8.7655 C.3     1  UNL1        0.1797
     12 CL          4.0637   44.7711    7.8397 Cl      1  UNL1       -0.1033
     13 C           9.8495   43.0160   10.0515 C.2     1  UNL1        0.3426
     14 O          10.5835   44.0276   10.2215 O.2     1  UNL1       -0.2448
     15 O           9.1124   42.5045   11.1249 O.3     1  UNL1       -0.4454
     16 C           8.7445   41.1541   13.0924 C.3     1  UNL1        0.0513
     17 C           9.3980   41.2469   11.7257 C.3     1  UNL1        0.2089
     18 C          12.3133   42.1064    8.3819 C.3     1  UNL1        0.0268
     19 C          12.9219   40.7853    8.8405 C.3     1  UNL1        0.0044
     20 C          14.4234   40.7923    8.6161 C.3     1  UNL1        0.0003
     21 C          12.5788   40.4556   10.2939 C.3     1  UNL1        0.0003
     22 C          13.6821   39.6720   10.9909 C.3     1  UNL1        0.0000
@<TRIPOS>BOND
     1    16    17    1
     2    17    15    1
     3    13    15    1
     4    13     1    1
     5     2     9    1
     6     2     6   ar
     7    11     7    1
     8    11    12    1
     9     3     6   ar
    10     4     3    1
    11     5     1   ar
    12    18     5    1
    13    18    19    1
    14    19    21    1
    15    19    20    1
    16    21    22    1
    17     9     7   am
    18    13    14    2
    19     1     2   ar
    20     7     8    2
    21     3     5   ar
    22     9    10    1
@<TRIPOS>MOLECULE
MolPort-002-465-660 CSC000683401 CSSS00000683401 MCULE-2578394939 PubChem-3822736 Z56960310
 22 22 0 0 0
SMALL
GASTEIGER

@<TRIPOS>ATOM
      1 C           9.9121   41.6749    7.4142 C.ar    1  UNL1        0.0915
      2 C           9.1466   41.5699    6.2482 C.ar    1  UNL1        0.0864
      3 C           7.9579   42.8008    8.0616 C.ar    1  UNL1        0.0051
      4 C           6.9972   43.5667    8.9033 C.3     1  UNL1        0.0379
      5 C           9.2287   42.3729    8.4403 C.ar    1  UNL1       -0.0122
      6 S           7.6610   42.3302    6.4803 S.2     1  UNL1       -0.0767
      7 C           9.3264   39.5749    4.6534 C.2     1  UNL1        0.2431
      8 O           8.6425   38.8047    5.3773 O.2     1  UNL1       -0.2734
      9 N           9.5821   40.9293    5.0406 N.am    1  UNL1       -0.2778
     10 H          10.1101   41.4763    4.4152 H       1  UNL1        0.1554
     11 C           9.8492   39.0798    3.3526 C.3     1  UNL1        0.1797
     12 CL          9.9374   37.3028    3.3779 Cl      1  UNL1       -0.1033
     13 C          11.2847   41.1258    7.5371 C.2     1  UNL1        0.3426
     14 O          11.4912   39.8897    7.3946 O.2     1  UNL1       -0.2448
     15 O          12.3563   41.9814    7.8143 O.3     1  UNL1       -0.4454
     16 C          13.8252   42.8787    6.1211 C.3     1  UNL1        0.0513
     17 C          13.6349   41.8361    7.2076 C.3     1  UNL1        0.2089
     18 C           9.7719   42.6054    9.8190 C.3     1  UNL1        0.0268
     19 C           9.4912   41.4122   10.7264 C.3     1  UNL1        0.0044
     20 C          10.7914   40.8490   11.2714 C.3     1  UNL1        0.0003
     21 C           8.5161   41.7511   11.8548 C.3     1  UNL1        0.0003
     22 C           8.9268   41.1365   13.1855 C.3     1  UNL1        0.0000
@<TRIPOS>BOND
     1    16    17    1
     2    17    15    1
     3    13    15    1
     4    13     1    1
     5     2     9    1
     6     2     6   ar
     7    11     7    1
     8    11    12    1
     9     3     6   ar
    10     4     3    1
    11     5     1   ar
    12    18     5    1
    13    18    19    1
    14    19    21    1
    15    19    20    1
    16    21    22    1
    17     9     7   am
    18    13    14    2
    19     1     2   ar
    20     7     8    2
    21     3     5   ar
    22     9    10    1
@<TRIPOS>MOLECULE
MolPort-002-465-660 CSC000683401 CSSS00000683401 MCULE-2578394939 PubChem-3822736 Z56960310
 22 22 0 0 0
SMALL
GASTEIGER

@<TRIPOS>ATOM
      1 C          10.9569   41.6476    8.8366 C.ar    1  UNL1        0.0915
      2 C          11.7191   41.0547    9.8487 C.ar    1  UNL1        0.0864
      3 C           9.3808   41.5315   10.5710 C.ar    1  UNL1        0.0051
      4 C           8.0898   41.6681   11.3008 C.3     1  UNL1        0.0379
      5 C           9.6309   41.9177    9.2559 C.ar    1  UNL1       -0.0122
      6 S          10.7707   40.8629   11.2280 S.2     1  UNL1       -0.0767
      7 C          13.8444   39.8608   10.6319 C.2     1  UNL1        0.2431
      8 O          13.3235   39.4074   11.6847 O.2     1  UNL1       -0.2734
      9 N          13.0904   40.6564    9.7109 N.am    1  UNL1       -0.2778
     10 H          13.5605   40.9610    8.9012 H       1  UNL1        0.1554
     11 C          15.2607   39.5339   10.3200 C.3     1  UNL1        0.1797
     12 CL         15.9888   38.6544   11.6848 Cl      1  UNL1       -0.1033
     13 C          11.4893   41.9376    7.4827 C.2     1  UNL1        0.3426
     14 O          10.8859   41.5178    6.4577 O.2     1  UNL1       -0.2448
     15 O          12.6674   42.6786    7.3402 O.3     1  UNL1       -0.4454
     16 C          14.8805   43.1971    6.5258 C.3     1  UNL1        0.0513
     17 C          13.5597   42.5036    6.2460 C.3     1  UNL1        0.2089
     18 C           8.5912   42.5905    8.4096 C.3     1  UNL1        0.0268
     19 C           7.4552   41.6306    8.0716 C.3     1  UNL1        0.0044
     20 C           6.1147   42.3236    8.2370 C.3     1  UNL1        0.0003
     21 C           7.5980   41.0227    6.6755 C.3     1  UNL1        0.0003
     22 C           8.0137   39.5589    6.7161 C.3     1  UNL1        0.0000
@<TRIPOS>BOND
     1    16    17    1
     2    17    15    1
     3    13    15    1
     4    13     1    1
     5     2     9    1
     6     2     6   ar
     7    11     7    1
     8    11    12    1
     9     3     6   ar
    10     4     3    1
    11     5     1   ar
    12    18     5    1
    13    18    19    1
    14    19    21    1
    15    19    20    1
    16    21    22    1
    17     9     7   am
    18    13    14    2
    19     1     2   ar
    20     7     8    2
    21     3     5   ar
    22     9    10    1
@<TRIPOS>MOLECULE
MolPort-002-465-660 CSC000683401 CSSS00000683401 MCULE-2578394939 PubChem-3822736 Z56960310
 22 22 0 0 0
SMALL
GASTEIGER

@<TRIPOS>ATOM
      1 C           9.7169   42.5179    8.7954 C.ar    1  UNL1        0.0915
      2 C          10.5274   41.8060    7.9051 C.ar    1  UNL1        0.0864
      3 C           8.2485   42.2320    6.9877 C.ar    1  UNL1        0.0051
      4 C           7.0141   42.3212    6.1592 C.3     1  UNL1        0.0379
      5 C           8.4232   42.7533    8.2679 C.ar    1  UNL1       -0.0122
      6 S           9.6645   41.4822    6.4946 S.2     1  UNL1       -0.0767
      7 C          13.0528   41.9648    7.5138 C.2     1  UNL1        0.2431
      8 O          12.9629   42.8635    6.6365 O.2     1  UNL1       -0.2734
      9 N          11.8898   41.4352    8.1594 N.am    1  UNL1       -0.2778
     10 H          12.0402   40.7471    8.8472 H       1  UNL1        0.1554
     11 C          14.3958   41.4686    7.9140 C.3     1  UNL1        0.1797
     12 CL         14.2636   40.5215    9.4147 Cl      1  UNL1       -0.1033
     13 C          10.1815   42.9777   10.1271 C.2     1  UNL1        0.3426
     14 O          10.3016   44.2097   10.3692 O.2     1  UNL1       -0.2448
     15 O          10.4903   42.0416   11.1199 O.3     1  UNL1       -0.4454
     16 C           8.7693   41.2951   12.6400 C.3     1  UNL1        0.0513
     17 C           9.6358   40.9507   11.4424 C.3     1  UNL1        0.2089
     18 C           7.3177   43.4500    9.0044 C.3     1  UNL1        0.0268
     19 C           6.0691   42.5768    9.0713 C.3     1  UNL1        0.0044
     20 C           6.1034   41.7049   10.3136 C.3     1  UNL1        0.0003
     21 C           4.7783   43.3941    9.0014 C.3     1  UNL1        0.0003
     22 C           3.5451   42.5676    9.3380 C.3     1  UNL1        0.0000
@<TRIPOS>BOND
     1    16    17    1
     2    17    15    1
     3    13    15    1
     4    13     1    1
     5     2     9    1
     6     2     6   ar
     7    11     7    1
     8    11    12    1
     9     3     6   ar
    10     4     3    1
    11     5     1   ar
    12    18     5    1
    13    18    19    1
    14    19    21    1
    15    19    20    1
    16    21    22    1
    17     9     7   am
    18    13    14    2
    19     1     2   ar
    20     7     8    2
    21     3     5   ar
    22     9    10    1
@<TRIPOS>MOLECULE
MolPort-002-465-660 CSC000683401 CSSS00000683401 MCULE-2578394939 PubChem-3822736 Z56960310
 22 22 0 0 0
SMALL
GASTEIGER

@<TRIPOS>ATOM
      1 C           9.1368   41.3023    9.5741 C.ar    1  UNL1        0.0915
      2 C          10.0947   40.4290    9.0484 C.ar    1  UNL1        0.0864
      3 C           8.0159   40.5034    7.6738 C.ar    1  UNL1        0.0051
      4 C           6.9494   40.3236    6.6499 C.3     1  UNL1        0.0379
      5 C           7.9580   41.3366    8.7891 C.ar    1  UNL1       -0.0122
      6 S           9.4985   39.7216    7.6403 S.2     1  UNL1       -0.0767
      7 C          12.6454   40.6470    9.0969 C.2     1  UNL1        0.2431
      8 O          12.7082   41.3350    8.0444 O.2     1  UNL1       -0.2734
      9 N          11.3903   40.1986    9.6199 N.am    1  UNL1       -0.2778
     10 H          11.4192   39.6799   10.4562 H       1  UNL1        0.1554
     11 C          13.8965   40.3236    9.8321 C.3     1  UNL1        0.1797
     12 CL         13.4991   39.5254   11.3720 Cl      1  UNL1       -0.1033
     13 C           9.3550   42.1027   10.8040 C.2     1  UNL1        0.3426
     14 O           9.2412   43.3585   10.7750 O.2     1  UNL1       -0.2448
     15 O           9.6907   41.4632   12.0022 O.3     1  UNL1       -0.4454
     16 C           9.3383   41.1179   14.3657 C.3     1  UNL1        0.0513
     17 C           8.7221   41.0997   12.9788 C.3     1  UNL1        0.2089
     18 C           6.7374   42.1426    9.1213 C.3     1  UNL1        0.0268
     19 C           5.6516   41.2645    9.7345 C.3     1  UNL1        0.0044
     20 C           5.6371   41.4238   11.2442 C.3     1  UNL1        0.0003
     21 C           4.2713   41.5346    9.1339 C.3     1  UNL1        0.0003
     22 C           3.1453   40.9396    9.9677 C.3     1  UNL1        0.0000
@<TRIPOS>BOND
     1    16    17    1
     2    17    15    1
     3    13    15    1
     4    13     1    1
     5     2     9    1
     6     2     6   ar
     7    11     7    1
     8    11    12    1
     9     3     6   ar
    10     4     3    1
    11     5     1   ar
    12    18     5    1
    13    18    19    1
    14    19    21    1
    15    19    20    1
    16    21    22    1
    17     9     7   am
    18    13    14    2
    19     1     2   ar
    20     7     8    2
    21     3     5   ar
    22     9    10    1
