@<TRIPOS>MOLECULE
MolPort-039-117-155 CSC047896421 CSSS00047896421 MCULE-9383620367 PubChem-118783737
 28 31 0 0 0
SMALL
GASTEIGER

@<TRIPOS>ATOM
      1 C          -0.1516   45.8567   18.7916 C.3     1  UNL1        0.1557
      2 C          -0.5472   46.7428   19.9754 C.3     1  UNL1        0.0296
      3 C          -1.9860   46.4443   20.3855 C.3     1  UNL1        0.0040
      4 C          -2.1691   44.9856   20.8308 C.3     1  UNL1        0.0216
      5 C          -1.1031   44.0355   20.2723 C.3     1  UNL1        0.0954
      6 C          -0.7462   43.6039   17.8257 C.2     1  UNL1        0.3080
      7 N          -0.6495   44.4840   18.9559 N.am    1  UNL1       -0.2570
      8 N          -0.3509   44.0678   16.5256 N.am    1  UNL1       -0.2680
      9 O          -1.1770   42.4289   17.9821 O.2     1  UNL1       -0.2522
     10 H          -0.0350   44.9985   16.4687 H       1  UNL1        0.1564
     11 C           4.7098   45.9028   19.6489 C.3     1  UNL1        0.0773
     12 C           3.3826   45.8806   18.9798 C.ar    1  UNL1        0.1810
     13 C           1.3332   45.8614   18.6261 C.ar    1  UNL1        0.2544
     14 N           3.2240   45.8449   17.6437 N.ar    1  UNL1       -0.0605
     15 N           2.2117   45.8932   19.6478 N.ar    1  UNL1       -0.1935
     16 O           1.9384   45.8344   17.4652 O.2     1  UNL1       -0.3356
     17 C          -0.3668   43.3215   15.3015 C.ar    1  UNL1        0.0546
     18 C           0.8525   42.9357   14.7342 C.ar    1  UNL1        0.0516
     19 C           0.8874   42.2064   13.5413 C.ar    1  UNL1        0.1396
     20 C          -0.3178   41.8574   12.9114 C.ar    1  UNL1        0.0370
     21 C          -1.5395   42.2379   13.4711 C.ar    1  UNL1        0.0044
     22 C          -1.5641   42.9675   14.6621 C.ar    1  UNL1        0.0149
     23 O           2.1280   41.8393   13.0089 O.3     1  UNL1       -0.4791
     24 C           2.6257   42.3412   11.7732 C.3     1  UNL1        0.1659
     25 C           4.1341   42.1538   11.6980 C.3     1  UNL1        0.0435
     26 C           4.3900   41.1349   10.6084 C.3     1  UNL1        0.0038
     27 C           3.1766   41.1936    9.7128 C.3     1  UNL1        0.0038
     28 C           2.0270   41.5438   10.6297 C.3     1  UNL1        0.0435
@<TRIPOS>BOND
     1    11    12    1
     2    12    15   ar
     3    13    16   ar
     4     1    13    1
     5     1     2    1
     6     1     7    1
     7     2     3    1
     8     3     4    1
     9     4     5    1
    10     5     7    1
    11     6     8   am
    12    18    19   ar
    13    19    23    1
    14    24    23    1
    15    24    25    1
    16    25    26    1
    17    26    27    1
    18    27    28    1
    19    28    24    1
    20    20    21   ar
    21    22    17   ar
    22    14    16   ar
    23     7     6   am
    24     8    17    1
    25    12    14   ar
    26    13    15   ar
    27     6     9    2
    28    17    18   ar
    29    19    20   ar
    30    21    22   ar
    31     8    10    1
@<TRIPOS>MOLECULE
MolPort-039-117-155 CSC047896421 CSSS00047896421 MCULE-9383620367 PubChem-118783737
 28 31 0 0 0
SMALL
GASTEIGER

@<TRIPOS>ATOM
      1 C          -0.5044   45.6364   18.8932 C.3     1  UNL1        0.1557
      2 C          -0.7185   46.6159   20.0499 C.3     1  UNL1        0.0296
      3 C          -2.1523   46.5074   20.5595 C.3     1  UNL1        0.0040
      4 C          -2.4718   45.1021   21.0912 C.3     1  UNL1        0.0216
      5 C          -1.5599   44.0089   20.5216 C.3     1  UNL1        0.0954
      6 C          -1.4141   43.4274   18.0844 C.2     1  UNL1        0.3080
      7 N          -1.1443   44.3406   19.1588 N.am    1  UNL1       -0.2570
      8 N          -1.0535   43.7820   16.7405 N.am    1  UNL1       -0.2680
      9 O          -1.9654   42.3194   18.3278 O.2     1  UNL1       -0.2522
     10 H          -0.6376   44.6656   16.6159 H       1  UNL1        0.1564
     11 C           4.3680   45.0820   19.4613 C.3     1  UNL1        0.0773
     12 C           3.0108   45.2252   18.8720 C.ar    1  UNL1        0.1810
     13 C           0.9573   45.4592   18.6402 C.ar    1  UNL1        0.2544
     14 N           2.7703   45.2137   17.5478 N.ar    1  UNL1       -0.0605
     15 N           1.8920   45.3794   19.6080 N.ar    1  UNL1       -0.1935
     16 O           1.4849   45.3619   17.4456 O.2     1  UNL1       -0.3356
     17 C          -1.2340   42.9877   15.5606 C.ar    1  UNL1        0.0546
     18 C          -0.3158   43.1220   14.5136 C.ar    1  UNL1        0.0516
     19 C          -0.4504   42.3682   13.3431 C.ar    1  UNL1        0.1396
     20 C          -1.5191   41.4657   13.2237 C.ar    1  UNL1        0.0370
     21 C          -2.4400   41.3248   14.2643 C.ar    1  UNL1        0.0044
     22 C          -2.2981   42.0832   15.4289 C.ar    1  UNL1        0.0149
     23 O           0.4908   42.5321   12.3211 O.3     1  UNL1       -0.4791
     24 C           1.8925   42.3825   12.5203 C.3     1  UNL1        0.1659
     25 C           2.2003   41.0008   13.0791 C.3     1  UNL1        0.0435
     26 C           2.9608   40.2577   12.0020 C.3     1  UNL1        0.0038
     27 C           3.5779   41.3291   11.1364 C.3     1  UNL1        0.0038
     28 C           2.6033   42.4835   11.1838 C.3     1  UNL1        0.0435
@<TRIPOS>BOND
     1    11    12    1
     2    12    15   ar
     3    13    16   ar
     4     1    13    1
     5     1     2    1
     6     1     7    1
     7     2     3    1
     8     3     4    1
     9     4     5    1
    10     5     7    1
    11     6     8   am
    12    18    19   ar
    13    19    23    1
    14    24    23    1
    15    24    25    1
    16    25    26    1
    17    26    27    1
    18    27    28    1
    19    28    24    1
    20    20    21   ar
    21    22    17   ar
    22    14    16   ar
    23     7     6   am
    24     8    17    1
    25    12    14   ar
    26    13    15   ar
    27     6     9    2
    28    17    18   ar
    29    19    20   ar
    30    21    22   ar
    31     8    10    1
@<TRIPOS>MOLECULE
MolPort-039-117-155 CSC047896421 CSSS00047896421 MCULE-9383620367 PubChem-118783737
 28 31 0 0 0
SMALL
GASTEIGER

@<TRIPOS>ATOM
      1 C          -0.6762   45.4981   19.1632 C.3     1  UNL1        0.1557
      2 C          -1.2457   46.0139   20.4872 C.3     1  UNL1        0.0296
      3 C          -2.3668   45.0937   20.9602 C.3     1  UNL1        0.0040
      4 C          -1.8724   43.6606   21.2077 C.3     1  UNL1        0.0216
      5 C          -0.5912   43.3127   20.4405 C.3     1  UNL1        0.0954
      6 C          -0.4073   43.3103   17.9374 C.2     1  UNL1        0.3080
      7 N          -0.5374   44.0353   19.1698 N.am    1  UNL1       -0.2570
      8 N          -0.4103   44.0204   16.6894 N.am    1  UNL1       -0.2680
      9 O          -0.2906   42.0546   17.9588 O.2     1  UNL1       -0.2522
     10 H          -0.5169   44.9977   16.7404 H       1  UNL1        0.1564
     11 C           3.5510   46.9273   17.0516 C.3     1  UNL1        0.0773
     12 C           2.4217   46.7565   18.0030 C.ar    1  UNL1        0.1810
     13 C           0.6393   46.1501   18.8866 C.ar    1  UNL1        0.2544
     14 N           2.3558   47.3739   19.1973 N.ar    1  UNL1       -0.0605
     15 N           1.3558   45.9678   17.7597 N.ar    1  UNL1       -0.1935
     16 O           1.2355   46.9711   19.7144 O.2     1  UNL1       -0.3356
     17 C          -0.2747   43.4591   15.3771 C.ar    1  UNL1        0.0546
     18 C           0.9921   43.0457   14.9509 C.ar    1  UNL1        0.0516
     19 C           1.1736   42.4920   13.6794 C.ar    1  UNL1        0.1396
     20 C           0.0682   42.3490   12.8258 C.ar    1  UNL1        0.0370
     21 C          -1.2002   42.7585   13.2432 C.ar    1  UNL1        0.0044
     22 C          -1.3712   43.3117   14.5146 C.ar    1  UNL1        0.0149
     23 O           2.4569   42.0901   13.2936 O.3     1  UNL1       -0.4791
     24 C           2.7431   41.5040   12.0281 C.3     1  UNL1        0.1659
     25 C           2.0126   42.2537   10.9234 C.3     1  UNL1        0.0435
     26 C           3.0743   42.9352   10.0873 C.3     1  UNL1        0.0038
     27 C           4.3369   42.1417   10.3197 C.3     1  UNL1        0.0038
     28 C           4.2268   41.6332   11.7389 C.3     1  UNL1        0.0435
@<TRIPOS>BOND
     1    11    12    1
     2    12    15   ar
     3    13    16   ar
     4     1    13    1
     5     1     2    1
     6     1     7    1
     7     2     3    1
     8     3     4    1
     9     4     5    1
    10     5     7    1
    11     6     8   am
    12    18    19   ar
    13    19    23    1
    14    24    23    1
    15    24    25    1
    16    25    26    1
    17    26    27    1
    18    27    28    1
    19    28    24    1
    20    20    21   ar
    21    22    17   ar
    22    14    16   ar
    23     7     6   am
    24     8    17    1
    25    12    14   ar
    26    13    15   ar
    27     6     9    2
    28    17    18   ar
    29    19    20   ar
    30    21    22   ar
    31     8    10    1
@<TRIPOS>MOLECULE
MolPort-039-117-155 CSC047896421 CSSS00047896421 MCULE-9383620367 PubChem-118783737
 28 31 0 0 0
SMALL
GASTEIGER

@<TRIPOS>ATOM
      1 C           7.3280   41.9203    9.9849 C.3     1  UNL1        0.1557
      2 C           6.3013   41.5272   11.0501 C.3     1  UNL1        0.0296
      3 C           6.9952   40.7808   12.1853 C.3     1  UNL1        0.0040
      4 C           8.0594   41.6443   12.8790 C.3     1  UNL1        0.0216
      5 C           8.5887   42.7864   12.0035 C.3     1  UNL1        0.0954
      6 C           9.7890   42.4490    9.8253 C.2     1  UNL1        0.3080
      7 N           8.5757   42.4041   10.5917 N.am    1  UNL1       -0.2570
      8 N           9.7822   42.0204    8.4549 N.am    1  UNL1       -0.2680
      9 O          10.8526   42.8652   10.3603 O.2     1  UNL1       -0.2522
     10 H           8.9232   41.6953    8.1006 H       1  UNL1        0.1564
     11 C           4.2324   44.9794    7.6548 C.3     1  UNL1        0.0773
     12 C           5.4502   44.2472    8.0913 C.ar    1  UNL1        0.1810
     13 C           6.7485   42.9557    9.0770 C.ar    1  UNL1        0.2544
     14 N           6.6728   44.4606    7.5704 N.ar    1  UNL1       -0.0605
     15 N           5.4458   43.3004    9.0509 N.ar    1  UNL1       -0.1935
     16 O           7.4500   43.6397    8.2082 O.2     1  UNL1       -0.3356
     17 C          10.8920   42.0149    7.5472 C.ar    1  UNL1        0.0546
     18 C          12.0583   42.6980    7.9081 C.ar    1  UNL1        0.0516
     19 C          13.1669   42.7206    7.0555 C.ar    1  UNL1        0.1396
     20 C          13.1045   42.0459    5.8259 C.ar    1  UNL1        0.0370
     21 C          11.9444   41.3609    5.4579 C.ar    1  UNL1        0.0044
     22 C          10.8417   41.3454    6.3155 C.ar    1  UNL1        0.0149
     23 O          14.3141   43.4143    7.4558 O.3     1  UNL1       -0.4791
     24 C          15.6353   42.9528    7.1948 C.3     1  UNL1        0.1659
     25 C          16.6286   44.0983    7.3263 C.3     1  UNL1        0.0435
     26 C          17.4878   43.7898    8.5335 C.3     1  UNL1        0.0038
     27 C          17.4035   42.2936    8.7128 C.3     1  UNL1        0.0038
     28 C          16.0200   41.9170    8.2345 C.3     1  UNL1        0.0435
@<TRIPOS>BOND
     1    11    12    1
     2    12    15   ar
     3    13    16   ar
     4     1    13    1
     5     1     2    1
     6     1     7    1
     7     2     3    1
     8     3     4    1
     9     4     5    1
    10     5     7    1
    11     6     8   am
    12    18    19   ar
    13    19    23    1
    14    24    23    1
    15    24    25    1
    16    25    26    1
    17    26    27    1
    18    27    28    1
    19    28    24    1
    20    20    21   ar
    21    22    17   ar
    22    14    16   ar
    23     7     6   am
    24     8    17    1
    25    12    14   ar
    26    13    15   ar
    27     6     9    2
    28    17    18   ar
    29    19    20   ar
    30    21    22   ar
    31     8    10    1
@<TRIPOS>MOLECULE
MolPort-039-117-155 CSC047896421 CSSS00047896421 MCULE-9383620367 PubChem-118783737
 28 31 0 0 0
SMALL
GASTEIGER

@<TRIPOS>ATOM
      1 C           5.1497   41.3563    9.2886 C.3     1  UNL1        0.1557
      2 C           3.6367   41.1540    9.1746 C.3     1  UNL1        0.0296
      3 C           3.1301   40.3605   10.3750 C.3     1  UNL1        0.0040
      4 C           3.3905   41.0901   11.7014 C.3     1  UNL1        0.0216
      5 C           4.5319   42.1112   11.6259 C.3     1  UNL1        0.0954
      6 C           6.9115   41.5238   11.0858 C.2     1  UNL1        0.3080
      7 N           5.5477   41.6809   10.6654 N.am    1  UNL1       -0.2570
      8 N           7.8942   41.0485   10.1531 N.am    1  UNL1       -0.2680
      9 O           7.2377   41.8050   12.2712 O.2     1  UNL1       -0.2522
     10 H           7.5732   40.8353    9.2471 H       1  UNL1        0.1564
     11 C           7.4666   43.8747    5.7304 C.3     1  UNL1        0.0773
     12 C           6.5642   43.4951    6.8491 C.ar    1  UNL1        0.1810
     13 C           5.5924   42.4281    8.3465 C.ar    1  UNL1        0.2544
     14 N           5.6736   44.3377    7.4046 N.ar    1  UNL1       -0.0605
     15 N           6.5516   42.2706    7.4129 N.ar    1  UNL1       -0.1935
     16 O           5.0913   43.6378    8.3296 O.2     1  UNL1       -0.3356
     17 C           9.2928   40.8508   10.3992 C.ar    1  UNL1        0.0546
     18 C          10.0479   40.1466    9.4552 C.ar    1  UNL1        0.0516
     19 C          11.4156   39.9290    9.6514 C.ar    1  UNL1        0.1396
     20 C          12.0336   40.4277   10.8091 C.ar    1  UNL1        0.0370
     21 C          11.2875   41.1324   11.7565 C.ar    1  UNL1        0.0044
     22 C           9.9217   41.3433   11.5523 C.ar    1  UNL1        0.0149
     23 O          12.1339   39.2212    8.6817 O.3     1  UNL1       -0.4791
     24 C          12.4205   37.8305    8.7840 C.3     1  UNL1        0.1659
     25 C          13.7605   37.6184    9.4736 C.3     1  UNL1        0.0435
     26 C          13.4634   36.9631   10.8051 C.3     1  UNL1        0.0038
     27 C          12.1232   36.2913   10.6302 C.3     1  UNL1        0.0038
     28 C          11.3700   37.1638    9.6523 C.3     1  UNL1        0.0435
@<TRIPOS>BOND
     1    11    12    1
     2    12    15   ar
     3    13    16   ar
     4     1    13    1
     5     1     2    1
     6     1     7    1
     7     2     3    1
     8     3     4    1
     9     4     5    1
    10     5     7    1
    11     6     8   am
    12    18    19   ar
    13    19    23    1
    14    24    23    1
    15    24    25    1
    16    25    26    1
    17    26    27    1
    18    27    28    1
    19    28    24    1
    20    20    21   ar
    21    22    17   ar
    22    14    16   ar
    23     7     6   am
    24     8    17    1
    25    12    14   ar
    26    13    15   ar
    27     6     9    2
    28    17    18   ar
    29    19    20   ar
    30    21    22   ar
    31     8    10    1
@<TRIPOS>MOLECULE
MolPort-039-117-155 CSC047896421 CSSS00047896421 MCULE-9383620367 PubChem-118783737
 28 31 0 0 0
SMALL
GASTEIGER

@<TRIPOS>ATOM
      1 C           7.2645   41.5648   10.5669 C.3     1  UNL1        0.1557
      2 C           6.4941   41.6751   11.8850 C.3     1  UNL1        0.0296
      3 C           7.3842   41.2314   13.0418 C.3     1  UNL1        0.0040
      4 C           8.6380   42.1088   13.1755 C.3     1  UNL1        0.0216
      5 C           9.0217   42.8318   11.8790 C.3     1  UNL1        0.0954
      6 C           9.6483   41.6622    9.7485 C.2     1  UNL1        0.3080
      7 N           8.6500   42.0322   10.7118 N.am    1  UNL1       -0.2570
      8 N           9.2893   40.8313    8.6339 N.am    1  UNL1       -0.2680
      9 O          10.8338   42.0699    9.8872 O.2     1  UNL1       -0.2522
     10 H           8.3510   40.5369    8.5897 H       1  UNL1        0.1564
     11 C           6.2500   44.4555    6.6959 C.3     1  UNL1        0.0773
     12 C           6.1237   43.5512    7.8689 C.ar    1  UNL1        0.1810
     13 C           6.5586   42.3347    9.4987 C.ar    1  UNL1        0.2544
     14 N           4.9445   43.1066    8.3414 N.ar    1  UNL1       -0.0605
     15 N           7.1785   43.0898    8.5703 N.ar    1  UNL1       -0.1935
     16 O           5.2574   42.3554    9.3526 O.2     1  UNL1       -0.3356
     17 C          10.1505   40.3844    7.5783 C.ar    1  UNL1        0.0546
     18 C          11.3215   39.6958    7.9129 C.ar    1  UNL1        0.0516
     19 C          12.1925   39.2401    6.9179 C.ar    1  UNL1        0.1396
     20 C          11.8820   39.4762    5.5693 C.ar    1  UNL1        0.0370
     21 C          10.7148   40.1623    5.2262 C.ar    1  UNL1        0.0044
     22 C           9.8519   40.6149    6.2273 C.ar    1  UNL1        0.0149
     23 O          13.3519   38.5544    7.2959 O.3     1  UNL1       -0.4791
     24 C          13.6827   38.2695    8.6509 C.3     1  UNL1        0.1659
     25 C          13.9266   36.7782    8.8310 C.3     1  UNL1        0.0435
     26 C          15.3975   36.6151    9.1479 C.3     1  UNL1        0.0038
     27 C          15.8346   37.9444    9.7135 C.3     1  UNL1        0.0038
     28 C          14.9784   38.9724    9.0100 C.3     1  UNL1        0.0435
@<TRIPOS>BOND
     1    11    12    1
     2    12    15   ar
     3    13    16   ar
     4     1    13    1
     5     1     2    1
     6     1     7    1
     7     2     3    1
     8     3     4    1
     9     4     5    1
    10     5     7    1
    11     6     8   am
    12    18    19   ar
    13    19    23    1
    14    24    23    1
    15    24    25    1
    16    25    26    1
    17    26    27    1
    18    27    28    1
    19    28    24    1
    20    20    21   ar
    21    22    17   ar
    22    14    16   ar
    23     7     6   am
    24     8    17    1
    25    12    14   ar
    26    13    15   ar
    27     6     9    2
    28    17    18   ar
    29    19    20   ar
    30    21    22   ar
    31     8    10    1
@<TRIPOS>MOLECULE
MolPort-039-117-155 CSC047896421 CSSS00047896421 MCULE-9383620367 PubChem-118783737
 28 31 0 0 0
SMALL
GASTEIGER

@<TRIPOS>ATOM
      1 C           5.1922   41.2996    9.3544 C.3     1  UNL1        0.1557
      2 C           3.7086   40.9285    9.4186 C.3     1  UNL1        0.0296
      3 C           3.4699   39.9517   10.5659 C.3     1  UNL1        0.0040
      4 C           3.8445   40.5568   11.9272 C.3     1  UNL1        0.0216
      5 C           4.8488   41.7113   11.8297 C.3     1  UNL1        0.0954
      6 C           7.1716   41.4812   10.9072 C.2     1  UNL1        0.3080
      7 N           5.7519   41.5165   10.6957 N.am    1  UNL1       -0.2570
      8 N           8.0510   41.2347    9.7992 N.am    1  UNL1       -0.2680
      9 O           7.6371   41.6675   12.0645 O.2     1  UNL1       -0.2522
     10 H           7.6244   41.0853    8.9246 H       1  UNL1        0.1564
     11 C           4.6159   45.7007    7.1937 C.3     1  UNL1        0.0773
     12 C           5.1403   44.3676    7.5905 C.ar    1  UNL1        0.1810
     13 C           5.3767   42.5146    8.5047 C.ar    1  UNL1        0.2544
     14 N           6.2658   43.8305    7.0841 N.ar    1  UNL1       -0.0605
     15 N           4.5389   43.5703    8.4960 N.ar    1  UNL1       -0.1935
     16 O           6.3772   42.6810    7.6764 O.2     1  UNL1       -0.3356
     17 C           9.4834   41.1829    9.8296 C.ar    1  UNL1        0.0546
     18 C          10.2009   41.8459    8.8281 C.ar    1  UNL1        0.0516
     19 C          11.5994   41.8239    8.8162 C.ar    1  UNL1        0.1396
     20 C          12.2863   41.1295    9.8246 C.ar    1  UNL1        0.0370
     21 C          11.5781   40.4653   10.8286 C.ar    1  UNL1        0.0044
     22 C          10.1813   40.4919   10.8312 C.ar    1  UNL1        0.0149
     23 O          12.2779   42.5014    7.7975 O.3     1  UNL1       -0.4791
     24 C          13.4200   41.9704    7.1340 C.3     1  UNL1        0.1659
     25 C          13.9595   42.9765    6.1277 C.3     1  UNL1        0.0435
     26 C          15.3101   43.4237    6.6440 C.3     1  UNL1        0.0038
     27 C          15.7823   42.3097    7.5462 C.3     1  UNL1        0.0038
     28 C          14.5228   41.7294    8.1477 C.3     1  UNL1        0.0435
@<TRIPOS>BOND
     1    11    12    1
     2    12    15   ar
     3    13    16   ar
     4     1    13    1
     5     1     2    1
     6     1     7    1
     7     2     3    1
     8     3     4    1
     9     4     5    1
    10     5     7    1
    11     6     8   am
    12    18    19   ar
    13    19    23    1
    14    24    23    1
    15    24    25    1
    16    25    26    1
    17    26    27    1
    18    27    28    1
    19    28    24    1
    20    20    21   ar
    21    22    17   ar
    22    14    16   ar
    23     7     6   am
    24     8    17    1
    25    12    14   ar
    26    13    15   ar
    27     6     9    2
    28    17    18   ar
    29    19    20   ar
    30    21    22   ar
    31     8    10    1
@<TRIPOS>MOLECULE
MolPort-039-117-155 CSC047896421 CSSS00047896421 MCULE-9383620367 PubChem-118783737
 28 31 0 0 0
SMALL
GASTEIGER

@<TRIPOS>ATOM
      1 C           4.6209   41.6023    9.2070 C.3     1  UNL1        0.1557
      2 C           3.2976   41.1564    9.8340 C.3     1  UNL1        0.0296
      3 C           3.5359   39.9536   10.7416 C.3     1  UNL1        0.0040
      4 C           4.4956   40.2815   11.8953 C.3     1  UNL1        0.0216
      5 C           5.4119   41.4773   11.6097 C.3     1  UNL1        0.0954
      6 C           7.0855   41.5524    9.7408 C.2     1  UNL1        0.3080
      7 N           5.7194   41.5636   10.1822 N.am    1  UNL1       -0.2570
      8 N           7.3804   41.5818    8.3359 N.am    1  UNL1       -0.2680
      9 O           8.0176   41.5174   10.5897 O.2     1  UNL1       -0.2522
     10 H           6.6084   41.5963    7.7252 H       1  UNL1        0.1564
     11 C           2.7834   45.8841    7.5759 C.3     1  UNL1        0.0773
     12 C           3.7083   44.7801    7.9439 C.ar    1  UNL1        0.1810
     13 C           4.4754   42.9739    8.6328 C.ar    1  UNL1        0.2544
     14 N           5.0416   44.8378    7.7692 N.ar    1  UNL1       -0.0605
     15 N           3.2995   43.6165    8.4883 N.ar    1  UNL1       -0.1935
     16 O           5.4806   43.6981    8.2085 O.2     1  UNL1       -0.3356
     17 C           8.6783   41.5924    7.7268 C.ar    1  UNL1        0.0546
     18 C           9.8040   41.4300    8.5416 C.ar    1  UNL1        0.0516
     19 C          11.0906   41.4331    7.9929 C.ar    1  UNL1        0.1396
     20 C          11.2487   41.5985    6.6078 C.ar    1  UNL1        0.0370
     21 C          10.1304   41.7608    5.7868 C.ar    1  UNL1        0.0044
     22 C           8.8495   41.7577    6.3444 C.ar    1  UNL1        0.0149
     23 O          12.1889   41.2659    8.8432 O.3     1  UNL1       -0.4791
     24 C          12.6208   39.9955    9.3186 C.3     1  UNL1        0.1659
     25 C          14.0933   39.7856    8.9965 C.3     1  UNL1        0.0435
     26 C          14.8285   39.7730   10.3194 C.3     1  UNL1        0.0038
     27 C          13.7939   39.3874   11.3484 C.3     1  UNL1        0.0038
     28 C          12.4923   39.9546   10.8298 C.3     1  UNL1        0.0435
@<TRIPOS>BOND
     1    11    12    1
     2    12    15   ar
     3    13    16   ar
     4     1    13    1
     5     1     2    1
     6     1     7    1
     7     2     3    1
     8     3     4    1
     9     4     5    1
    10     5     7    1
    11     6     8   am
    12    18    19   ar
    13    19    23    1
    14    24    23    1
    15    24    25    1
    16    25    26    1
    17    26    27    1
    18    27    28    1
    19    28    24    1
    20    20    21   ar
    21    22    17   ar
    22    14    16   ar
    23     7     6   am
    24     8    17    1
    25    12    14   ar
    26    13    15   ar
    27     6     9    2
    28    17    18   ar
    29    19    20   ar
    30    21    22   ar
    31     8    10    1
@<TRIPOS>MOLECULE
MolPort-039-117-155 CSC047896421 CSSS00047896421 MCULE-9383620367 PubChem-118783737
 28 31 0 0 0
SMALL
GASTEIGER

@<TRIPOS>ATOM
      1 C          12.8622   37.7056    9.0802 C.3     1  UNL1        0.1557
      2 C          11.5489   38.2337    9.6629 C.3     1  UNL1        0.0296
      3 C          10.6367   37.0649   10.0223 C.3     1  UNL1        0.0040
      4 C          11.2647   36.1462   11.0811 C.3     1  UNL1        0.0216
      5 C          12.7941   36.2369   11.1424 C.3     1  UNL1        0.0954
      6 C          14.3158   35.6502    9.2347 C.2     1  UNL1        0.3080
      7 N          13.3478   36.5334    9.8213 N.am    1  UNL1       -0.2570
      8 N          14.8150   35.9160    7.9149 N.am    1  UNL1       -0.2680
      9 O          14.7220   34.6471    9.8824 O.2     1  UNL1       -0.2522
     10 H          14.4492   36.7076    7.4580 H       1  UNL1        0.1564
     11 C          15.2240   41.9927    8.4373 C.3     1  UNL1        0.0773
     12 C          14.8915   40.5927    8.8106 C.ar    1  UNL1        0.1810
     13 C          13.8904   38.7895    9.0780 C.ar    1  UNL1        0.2544
     14 N          15.7520   39.7643    9.4309 N.ar    1  UNL1       -0.0605
     15 N          13.6962   40.0203    8.5640 N.ar    1  UNL1       -0.1935
     16 O          15.0931   38.6558    9.5784 O.2     1  UNL1       -0.3356
     17 C          15.7890   35.1525    7.1909 C.ar    1  UNL1        0.0546
     18 C          16.7337   35.8324    6.4146 C.ar    1  UNL1        0.0516
     19 C          17.7034   35.1308    5.6911 C.ar    1  UNL1        0.1396
     20 C          17.7268   33.7283    5.7501 C.ar    1  UNL1        0.0370
     21 C          16.7878   33.0414    6.5230 C.ar    1  UNL1        0.0044
     22 C          15.8222   33.7510    7.2410 C.ar    1  UNL1        0.0149
     23 O          18.6304   35.8498    4.9287 O.3     1  UNL1       -0.4791
     24 C          18.2852   36.5503    3.7384 C.3     1  UNL1        0.1659
     25 C          19.5417   36.9364    2.9716 C.3     1  UNL1        0.0435
     26 C          19.5325   36.1298    1.6910 C.3     1  UNL1        0.0038
     27 C          18.0854   35.7729    1.4534 C.3     1  UNL1        0.0038
     28 C          17.4821   35.6358    2.8325 C.3     1  UNL1        0.0435
@<TRIPOS>BOND
     1    11    12    1
     2    12    15   ar
     3    13    16   ar
     4     1    13    1
     5     1     2    1
     6     1     7    1
     7     2     3    1
     8     3     4    1
     9     4     5    1
    10     5     7    1
    11     6     8   am
    12    18    19   ar
    13    19    23    1
    14    24    23    1
    15    24    25    1
    16    25    26    1
    17    26    27    1
    18    27    28    1
    19    28    24    1
    20    20    21   ar
    21    22    17   ar
    22    14    16   ar
    23     7     6   am
    24     8    17    1
    25    12    14   ar
    26    13    15   ar
    27     6     9    2
    28    17    18   ar
    29    19    20   ar
    30    21    22   ar
    31     8    10    1
@<TRIPOS>MOLECULE
MolPort-039-117-155 CSC047896421 CSSS00047896421 MCULE-9383620367 PubChem-118783737
 28 31 0 0 0
SMALL
GASTEIGER

@<TRIPOS>ATOM
      1 C           5.2478   41.3265    9.2699 C.3     1  UNL1        0.1557
      2 C           3.7968   40.8663    9.4308 C.3     1  UNL1        0.0296
      3 C           3.6985   39.8579   10.5713 C.3     1  UNL1        0.0040
      4 C           4.1338   40.4613   11.9152 C.3     1  UNL1        0.0216
      5 C           5.0594   41.6753   11.7714 C.3     1  UNL1        0.0954
      6 C           7.3194   41.5999   10.6825 C.2     1  UNL1        0.3080
      7 N           5.8887   41.5538   10.5725 N.am    1  UNL1       -0.2570
      8 N           8.1300   41.4251    9.5102 N.am    1  UNL1       -0.2680
      9 O           7.8551   41.7942   11.8077 O.2     1  UNL1       -0.2522
     10 H           7.6512   41.2652    8.6650 H       1  UNL1        0.1564
     11 C           4.2396   45.7027    7.2198 C.3     1  UNL1        0.0773
     12 C           4.8811   44.4075    7.5671 C.ar    1  UNL1        0.1810
     13 C           5.2996   42.5644    8.4350 C.ar    1  UNL1        0.2544
     14 N           6.0182   43.9650    6.9989 N.ar    1  UNL1       -0.0605
     15 N           4.3853   43.5535    8.4848 N.ar    1  UNL1       -0.1935
     16 O           6.2439   42.8186    7.5641 O.2     1  UNL1       -0.3356
     17 C           9.5615   41.4585    9.4383 C.ar    1  UNL1        0.0546
     18 C          10.2979   40.6990   10.3539 C.ar    1  UNL1        0.0516
     19 C          11.6962   40.6994   10.3225 C.ar    1  UNL1        0.1396
     20 C          12.3637   41.4701    9.3574 C.ar    1  UNL1        0.0370
     21 C          11.6365   42.2308    8.4391 C.ar    1  UNL1        0.0044
     22 C          10.2401   42.2250    8.4793 C.ar    1  UNL1        0.0149
     23 O          12.3940   39.9246   11.2553 O.3     1  UNL1       -0.4791
     24 C          13.3081   38.8971   10.8876 C.3     1  UNL1        0.1659
     25 C          14.0466   39.2806    9.6134 C.3     1  UNL1        0.0435
     26 C          15.4944   39.4938    9.9994 C.3     1  UNL1        0.0038
     27 C          15.6919   38.6981   11.2666 C.3     1  UNL1        0.0038
     28 C          14.3568   38.7457   11.9736 C.3     1  UNL1        0.0435
@<TRIPOS>BOND
     1    11    12    1
     2    12    15   ar
     3    13    16   ar
     4     1    13    1
     5     1     2    1
     6     1     7    1
     7     2     3    1
     8     3     4    1
     9     4     5    1
    10     5     7    1
    11     6     8   am
    12    18    19   ar
    13    19    23    1
    14    24    23    1
    15    24    25    1
    16    25    26    1
    17    26    27    1
    18    27    28    1
    19    28    24    1
    20    20    21   ar
    21    22    17   ar
    22    14    16   ar
    23     7     6   am
    24     8    17    1
    25    12    14   ar
    26    13    15   ar
    27     6     9    2
    28    17    18   ar
    29    19    20   ar
    30    21    22   ar
    31     8    10    1
