@<TRIPOS>MOLECULE
MolPort-008-295-443 17068714 CSSS00160395868 MCULE-4790383783 PubChem-17349465 ZINC000017068714 ZINC17068714
 24 25 0 0 0
SMALL
GASTEIGER

@<TRIPOS>ATOM
      1 C          13.7919   40.5871    9.4242 C.ar    1  UNL1        0.1198
      2 C          13.1723   40.0620   10.5532 C.ar    1  UNL1        0.1318
      3 C          13.8196   39.2629   11.6310 C.3     1  UNL1        0.0728
      4 C          11.6401   41.0738    9.4754 C.ar    1  UNL1        0.2112
      5 C          12.7873   41.2426    8.7309 C.ar    1  UNL1        0.1265
      6 O          11.8940   40.3689   10.5542 O.2     1  UNL1       -0.4431
      7 C           9.8874   42.9025    9.4688 C.2     1  UNL1        0.2531
      8 O          10.6273   43.6904   10.1194 O.2     1  UNL1       -0.2697
      9 N          10.3521   41.5909    9.1272 N.am    1  UNL1       -0.2511
     10 H           9.7445   41.0063    8.6189 H       1  UNL1        0.1580
     11 C           8.5397   43.3325    9.0584 C.ar    1  UNL1        0.0729
     12 C           8.1199   44.6551    9.2524 C.ar    1  UNL1        0.1043
     13 C           6.0020   44.1728    8.2939 C.ar    1  UNL1        0.1384
     14 C           6.3768   42.8450    8.0809 C.ar    1  UNL1        0.0310
     15 C           7.6513   42.4270    8.4660 C.ar    1  UNL1        0.0085
     16 N           6.8735   45.0432    8.8703 N.ar    1  UNL1       -0.2323
     17 CL          4.4082   44.7176    7.8185 Cl      1  UNL1       -0.0613
     18 C          15.2138   40.4722    9.0422 C.2     1  UNL1        0.3447
     19 O          15.8147   39.3705    9.1698 O.2     1  UNL1       -0.2448
     20 O          15.8905   41.5852    8.5393 O.3     1  UNL1       -0.4454
     21 C          17.5540   43.3053    8.6711 C.3     1  UNL1        0.0513
     22 C          17.2588   41.8285    8.8295 C.3     1  UNL1        0.2089
     23 C          12.8968   41.9574    7.4852 C.1     1  UNL1        0.1052
     24 N          12.9854   42.5315    6.4844 N.1     1  UNL1       -0.1907
@<TRIPOS>BOND
     1    21    22    1
     2    22    20    1
     3    18    20    1
     4    18     1    1
     5     2     6   ar
     6     3     2    1
     7     4     6   ar
     8     4     9    1
     9     7    11    1
    10    12    16   ar
    11    13    17    1
    12    13    14   ar
    13    15    11   ar
    14     5    23    1
    15     5     1   ar
    16     9     7   am
    17    18    19    2
    18     1     2   ar
    19     4     5   ar
    20     7     8    2
    21    11    12   ar
    22    13    16   ar
    23    14    15   ar
    24    23    24    3
    25     9    10    1
@<TRIPOS>MOLECULE
MolPort-008-295-443 17068714 CSSS00160395868 MCULE-4790383783 PubChem-17349465 ZINC000017068714 ZINC17068714
 24 25 0 0 0
SMALL
GASTEIGER

@<TRIPOS>ATOM
      1 C           7.8241   41.3248    8.3168 C.ar    1  UNL1        0.1198
      2 C           8.2229   40.5198    7.2550 C.ar    1  UNL1        0.1318
      3 C           7.3686   39.5660    6.4937 C.3     1  UNL1        0.0728
      4 C           9.9594   41.6059    7.8361 C.ar    1  UNL1        0.2112
      5 C           8.9601   42.0264    8.6867 C.ar    1  UNL1        0.1265
      6 O           9.4971   40.7105    6.9939 O.2     1  UNL1       -0.4431
      7 C          12.2458   41.9101    6.7892 C.2     1  UNL1        0.2531
      8 O          11.9006   41.3183    5.7299 O.2     1  UNL1       -0.2697
      9 N          11.3111   42.0751    7.8624 N.am    1  UNL1       -0.2511
     10 H          11.6193   42.5425    8.6722 H       1  UNL1        0.1580
     11 C          13.6159   42.4339    6.9237 C.ar    1  UNL1        0.0729
     12 C          13.9990   43.6133    6.2716 C.ar    1  UNL1        0.1043
     13 C          16.1947   43.4462    7.1591 C.ar    1  UNL1        0.1384
     14 C          15.8582   42.2676    7.8272 C.ar    1  UNL1        0.0310
     15 C          14.5629   41.7626    7.7066 C.ar    1  UNL1        0.0085
     16 N          15.2665   44.0895    6.4015 N.ar    1  UNL1       -0.2323
     17 CL         17.8137   44.0967    7.2969 Cl      1  UNL1       -0.0613
     18 C           6.4806   41.4146    8.9231 C.2     1  UNL1        0.3447
     19 O           5.4713   41.0085    8.2846 O.2     1  UNL1       -0.2448
     20 O           6.3305   41.9492   10.2043 O.3     1  UNL1       -0.4454
     21 C           4.2890   41.6719   11.4284 C.3     1  UNL1        0.0513
     22 C           5.7236   41.2175   11.2587 C.3     1  UNL1        0.2089
     23 C           9.0924   42.9978    9.7418 C.1     1  UNL1        0.1052
     24 N           9.1981   43.7781   10.5898 N.1     1  UNL1       -0.1907
@<TRIPOS>BOND
     1    21    22    1
     2    22    20    1
     3    18    20    1
     4    18     1    1
     5     2     6   ar
     6     3     2    1
     7     4     6   ar
     8     4     9    1
     9     7    11    1
    10    12    16   ar
    11    13    17    1
    12    13    14   ar
    13    15    11   ar
    14     5    23    1
    15     5     1   ar
    16     9     7   am
    17    18    19    2
    18     1     2   ar
    19     4     5   ar
    20     7     8    2
    21    11    12   ar
    22    13    16   ar
    23    14    15   ar
    24    23    24    3
    25     9    10    1
@<TRIPOS>MOLECULE
MolPort-008-295-443 17068714 CSSS00160395868 MCULE-4790383783 PubChem-17349465 ZINC000017068714 ZINC17068714
 24 25 0 0 0
SMALL
GASTEIGER

@<TRIPOS>ATOM
      1 C           7.6438   41.6191    8.1214 C.ar    1  UNL1        0.1198
      2 C           8.0321   40.7419    7.1144 C.ar    1  UNL1        0.1318
      3 C           7.1528   39.7940    6.3743 C.3     1  UNL1        0.0728
      4 C           9.8041   41.7685    7.6965 C.ar    1  UNL1        0.2112
      5 C           8.8028   42.2813    8.4925 C.ar    1  UNL1        0.1265
      6 O           9.3216   40.8552    6.8853 O.2     1  UNL1       -0.4431
      7 C          12.1262   41.9296    6.6975 C.2     1  UNL1        0.2531
      8 O          11.7759   41.3267    5.6462 O.2     1  UNL1       -0.2697
      9 N          11.1766   42.1705    7.7431 N.am    1  UNL1       -0.2511
     10 H          11.4895   42.6442    8.5474 H       1  UNL1        0.1580
     11 C          13.5175   42.3882    6.8511 C.ar    1  UNL1        0.0729
     12 C          13.9872   43.5012    6.1415 C.ar    1  UNL1        0.1043
     13 C          16.1382   43.2766    7.1211 C.ar    1  UNL1        0.1384
     14 C          15.7144   42.1629    7.8483 C.ar    1  UNL1        0.0310
     15 C          14.3983   41.7201    7.7102 C.ar    1  UNL1        0.0085
     16 N          15.2737   43.9174    6.2897 N.ar    1  UNL1       -0.2323
     17 CL         17.7847   43.8485    7.2795 Cl      1  UNL1       -0.0613
     18 C           6.2892   41.8068    8.6789 C.2     1  UNL1        0.3447
     19 O           5.4871   40.8345    8.7295 O.2     1  UNL1       -0.2448
     20 O           5.8992   43.0620    9.1500 O.3     1  UNL1       -0.4454
     21 C           4.9055   44.6493    7.6546 C.3     1  UNL1        0.0513
     22 C           4.6666   43.6574    8.7736 C.3     1  UNL1        0.2089
     23 C           8.9535   43.2978    9.5017 C.1     1  UNL1        0.1052
     24 N           9.0740   44.1148   10.3122 N.1     1  UNL1       -0.1907
@<TRIPOS>BOND
     1    21    22    1
     2    22    20    1
     3    18    20    1
     4    18     1    1
     5     2     6   ar
     6     3     2    1
     7     4     6   ar
     8     4     9    1
     9     7    11    1
    10    12    16   ar
    11    13    17    1
    12    13    14   ar
    13    15    11   ar
    14     5    23    1
    15     5     1   ar
    16     9     7   am
    17    18    19    2
    18     1     2   ar
    19     4     5   ar
    20     7     8    2
    21    11    12   ar
    22    13    16   ar
    23    14    15   ar
    24    23    24    3
    25     9    10    1
@<TRIPOS>MOLECULE
MolPort-008-295-443 17068714 CSSS00160395868 MCULE-4790383783 PubChem-17349465 ZINC000017068714 ZINC17068714
 24 25 0 0 0
SMALL
GASTEIGER

@<TRIPOS>ATOM
      1 C          17.1301   36.9570    9.7712 C.ar    1  UNL1        0.1198
      2 C          18.3986   37.0492    9.2085 C.ar    1  UNL1        0.1318
      3 C          19.5938   37.7004    9.8141 C.3     1  UNL1        0.0728
      4 C          17.2148   35.9960    7.7865 C.ar    1  UNL1        0.2112
      5 C          16.3688   36.2708    8.8390 C.ar    1  UNL1        0.1265
      6 O          18.4160   36.4684    8.0293 O.2     1  UNL1       -0.4431
      7 C          17.0706   33.8986    6.3736 C.2     1  UNL1        0.2531
      8 O          17.6338   33.1973    7.2582 O.2     1  UNL1       -0.2697
      9 N          16.8426   35.2956    6.5955 N.am    1  UNL1       -0.2511
     10 H          16.4001   35.8080    5.8806 H       1  UNL1        0.1580
     11 C          16.6454   33.2788    5.1068 C.ar    1  UNL1        0.0729
     12 C          16.6816   34.0026    3.9078 C.ar    1  UNL1        0.1043
     13 C          15.8493   32.1351    2.7009 C.ar    1  UNL1        0.1384
     14 C          15.7962   31.3754    3.8708 C.ar    1  UNL1        0.0310
     15 C          16.1966   31.9529    5.0764 C.ar    1  UNL1        0.0085
     16 N          16.2870   33.4220    2.7427 N.ar    1  UNL1       -0.2323
     17 CL         15.3517   31.4302    1.1782 Cl      1  UNL1       -0.0613
     18 C          16.6858   37.4779   11.0797 C.2     1  UNL1        0.3447
     19 O          16.3464   36.6791   11.9949 O.2     1  UNL1       -0.2448
     20 O          16.6429   38.8559   11.3010 O.3     1  UNL1       -0.4454
     21 C          15.2850   39.3772    9.3963 C.3     1  UNL1        0.0513
     22 C          16.4754   39.7837   10.2395 C.3     1  UNL1        0.2089
     23 C          14.9772   35.9105    8.9296 C.1     1  UNL1        0.1052
     24 N          13.8594   35.6205    9.0025 N.1     1  UNL1       -0.1907
@<TRIPOS>BOND
     1    21    22    1
     2    22    20    1
     3    18    20    1
     4    18     1    1
     5     2     6   ar
     6     3     2    1
     7     4     6   ar
     8     4     9    1
     9     7    11    1
    10    12    16   ar
    11    13    17    1
    12    13    14   ar
    13    15    11   ar
    14     5    23    1
    15     5     1   ar
    16     9     7   am
    17    18    19    2
    18     1     2   ar
    19     4     5   ar
    20     7     8    2
    21    11    12   ar
    22    13    16   ar
    23    14    15   ar
    24    23    24    3
    25     9    10    1
@<TRIPOS>MOLECULE
MolPort-008-295-443 17068714 CSSS00160395868 MCULE-4790383783 PubChem-17349465 ZINC000017068714 ZINC17068714
 24 25 0 0 0
SMALL
GASTEIGER

@<TRIPOS>ATOM
      1 C          14.1486   41.4232    8.3588 C.ar    1  UNL1        0.1198
      2 C          13.6031   42.1873    7.3327 C.ar    1  UNL1        0.1318
      3 C          14.3512   42.8767    6.2445 C.3     1  UNL1        0.0728
      4 C          11.9487   41.5267    8.4986 C.ar    1  UNL1        0.2112
      5 C          13.0649   40.9988    9.1105 C.ar    1  UNL1        0.1265
      6 O          12.2939   42.2293    7.4440 O.2     1  UNL1       -0.4431
      7 C           9.9498   42.1651    9.9173 C.2     1  UNL1        0.2531
      8 O          10.5627   43.1342   10.4434 O.2     1  UNL1       -0.2697
      9 N          10.6021   41.3394    8.9449 N.am    1  UNL1       -0.2511
     10 H          10.0895   40.5933    8.5579 H       1  UNL1        0.1580
     11 C           8.5573   41.8809   10.3044 C.ar    1  UNL1        0.0729
     12 C           8.1843   41.8351   11.6541 C.ar    1  UNL1        0.1043
     13 C           5.9367   41.3470   11.0648 C.ar    1  UNL1        0.1384
     14 C           6.2622   41.3826    9.7077 C.ar    1  UNL1        0.0310
     15 C           7.5786   41.6509    9.3300 C.ar    1  UNL1        0.0085
     16 N           6.8959   41.5719   12.0022 N.ar    1  UNL1       -0.2323
     17 CL          4.2919   41.0121   11.5601 Cl      1  UNL1       -0.0613
     18 C          15.5750   41.1264    8.5996 C.2     1  UNL1        0.3447
     19 O          15.9024   40.1539    9.3331 O.2     1  UNL1       -0.2448
     20 O          16.5596   41.9242    8.0132 O.3     1  UNL1       -0.4454
     21 C          17.8274   43.9557    7.9202 C.3     1  UNL1        0.0513
     22 C          17.3803   42.7923    8.7803 C.3     1  UNL1        0.2089
     23 C          13.0793   40.1768   10.2931 C.1     1  UNL1        0.1052
     24 N          13.0913   39.5159   11.2429 N.1     1  UNL1       -0.1907
@<TRIPOS>BOND
     1    21    22    1
     2    22    20    1
     3    18    20    1
     4    18     1    1
     5     2     6   ar
     6     3     2    1
     7     4     6   ar
     8     4     9    1
     9     7    11    1
    10    12    16   ar
    11    13    17    1
    12    13    14   ar
    13    15    11   ar
    14     5    23    1
    15     5     1   ar
    16     9     7   am
    17    18    19    2
    18     1     2   ar
    19     4     5   ar
    20     7     8    2
    21    11    12   ar
    22    13    16   ar
    23    14    15   ar
    24    23    24    3
    25     9    10    1
@<TRIPOS>MOLECULE
MolPort-008-295-443 17068714 CSSS00160395868 MCULE-4790383783 PubChem-17349465 ZINC000017068714 ZINC17068714
 24 25 0 0 0
SMALL
GASTEIGER

@<TRIPOS>ATOM
      1 C           7.0848   42.6293    8.7464 C.ar    1  UNL1        0.1198
      2 C           7.6458   42.4862    7.4819 C.ar    1  UNL1        0.1318
      3 C           7.0565   42.9423    6.1919 C.3     1  UNL1        0.0728
      4 C           9.0384   41.6066    8.8308 C.ar    1  UNL1        0.2112
      5 C           7.9979   42.0544    9.6155 C.ar    1  UNL1        0.1265
      6 O           8.8065   41.8747    7.5662 O.2     1  UNL1       -0.4431
      7 C          11.5242   41.5089    9.3077 C.2     1  UNL1        0.2531
      8 O          11.7145   42.6674    8.8459 O.2     1  UNL1       -0.2697
      9 N          10.2081   40.9426    9.3193 N.am    1  UNL1       -0.2511
     10 H          10.1014   40.0361    9.6881 H       1  UNL1        0.1580
     11 C          12.6598   40.7347    9.8373 C.ar    1  UNL1        0.0729
     12 C          13.8900   40.7182    9.1670 C.ar    1  UNL1        0.1043
     13 C          14.8208   39.2826   10.8131 C.ar    1  UNL1        0.1384
     14 C          13.6141   39.2696   11.5149 C.ar    1  UNL1        0.0310
     15 C          12.5318   39.9996   11.0220 C.ar    1  UNL1        0.0085
     16 N          14.9333   40.0003    9.6635 N.ar    1  UNL1       -0.2323
     17 CL         16.1906   38.3739   11.4138 Cl      1  UNL1       -0.0613
     18 C           5.7937   43.2571    9.0926 C.2     1  UNL1        0.3447
     19 O           5.5828   44.4670    8.8048 O.2     1  UNL1       -0.2448
     20 O           4.8078   42.5084    9.7383 O.3     1  UNL1       -0.4454
     21 C           2.7826   41.2673    9.4197 C.3     1  UNL1        0.0513
     22 C           3.4319   42.6354    9.4120 C.3     1  UNL1        0.2089
     23 C           7.8988   41.9360   11.0475 C.1     1  UNL1        0.1052
     24 N           7.8193   41.8401   12.1979 N.1     1  UNL1       -0.1907
@<TRIPOS>BOND
     1    21    22    1
     2    22    20    1
     3    18    20    1
     4    18     1    1
     5     2     6   ar
     6     3     2    1
     7     4     6   ar
     8     4     9    1
     9     7    11    1
    10    12    16   ar
    11    13    17    1
    12    13    14   ar
    13    15    11   ar
    14     5    23    1
    15     5     1   ar
    16     9     7   am
    17    18    19    2
    18     1     2   ar
    19     4     5   ar
    20     7     8    2
    21    11    12   ar
    22    13    16   ar
    23    14    15   ar
    24    23    24    3
    25     9    10    1
@<TRIPOS>MOLECULE
MolPort-008-295-443 17068714 CSSS00160395868 MCULE-4790383783 PubChem-17349465 ZINC000017068714 ZINC17068714
 24 25 0 0 0
SMALL
GASTEIGER

@<TRIPOS>ATOM
      1 C          13.6933   41.4275    8.3670 C.ar    1  UNL1        0.1198
      2 C          13.0495   42.1559    7.3724 C.ar    1  UNL1        0.1318
      3 C          13.6824   42.7761    6.1748 C.3     1  UNL1        0.0728
      4 C          11.5256   41.5898    8.7472 C.ar    1  UNL1        0.2112
      5 C          12.6939   41.0644    9.2552 C.ar    1  UNL1        0.1265
      6 O          11.7622   42.2341    7.6275 O.2     1  UNL1       -0.4431
      7 C           8.9963   41.7052    8.6746 C.2     1  UNL1        0.2531
      8 O           8.9923   42.0698    7.4669 O.2     1  UNL1       -0.2697
      9 N          10.2349   41.4555    9.3502 N.am    1  UNL1       -0.2511
     10 H          10.1952   41.1726   10.2924 H       1  UNL1        0.1580
     11 C           7.7220   41.5354    9.3937 C.ar    1  UNL1        0.0729
     12 C           6.5347   41.2781    8.6958 C.ar    1  UNL1        0.1043
     13 C           5.3024   41.2102   10.7241 C.ar    1  UNL1        0.1384
     14 C           6.4602   41.4651   11.4612 C.ar    1  UNL1        0.0310
     15 C           7.6727   41.6277   10.7898 C.ar    1  UNL1        0.0085
     16 N           5.3625   41.1228    9.3684 N.ar    1  UNL1       -0.2323
     17 CL          3.7713   41.0032   11.5463 Cl      1  UNL1       -0.0613
     18 C          15.1322   41.1085    8.4607 C.2     1  UNL1        0.3447
     19 O          15.5038   40.0052    8.9463 O.2     1  UNL1       -0.2448
     20 O          16.0792   42.0302    8.0102 O.3     1  UNL1       -0.4454
     21 C          17.7209   43.7305    8.4069 C.3     1  UNL1        0.0513
     22 C          17.2471   42.3356    8.7576 C.3     1  UNL1        0.2089
     23 C          12.8268   40.2982   10.4676 C.1     1  UNL1        0.1052
     24 N          12.9343   39.6828   11.4416 N.1     1  UNL1       -0.1907
@<TRIPOS>BOND
     1    21    22    1
     2    22    20    1
     3    18    20    1
     4    18     1    1
     5     2     6   ar
     6     3     2    1
     7     4     6   ar
     8     4     9    1
     9     7    11    1
    10    12    16   ar
    11    13    17    1
    12    13    14   ar
    13    15    11   ar
    14     5    23    1
    15     5     1   ar
    16     9     7   am
    17    18    19    2
    18     1     2   ar
    19     4     5   ar
    20     7     8    2
    21    11    12   ar
    22    13    16   ar
    23    14    15   ar
    24    23    24    3
    25     9    10    1
@<TRIPOS>MOLECULE
MolPort-008-295-443 17068714 CSSS00160395868 MCULE-4790383783 PubChem-17349465 ZINC000017068714 ZINC17068714
 24 25 0 0 0
SMALL
GASTEIGER

@<TRIPOS>ATOM
      1 C          10.0871   39.6978    5.4119 C.ar    1  UNL1        0.1198
      2 C           8.6992   39.7806    5.3806 C.ar    1  UNL1        0.1318
      3 C           7.8324   39.7146    4.1707 C.3     1  UNL1        0.0728
      4 C           9.2384   39.9503    7.4332 C.ar    1  UNL1        0.2112
      5 C          10.4270   39.8091    6.7504 C.ar    1  UNL1        0.1265
      6 O           8.2253   39.9302    6.5977 O.2     1  UNL1       -0.4431
      7 C           9.5203   41.2652    9.5797 C.2     1  UNL1        0.2531
      8 O          10.0172   42.2539    8.9739 O.2     1  UNL1       -0.2697
      9 N           9.1191   40.0983    8.8515 N.am    1  UNL1       -0.2511
     10 H           8.7358   39.3482    9.3610 H       1  UNL1        0.1580
     11 C           9.3518   41.3102   11.0423 C.ar    1  UNL1        0.0729
     12 C           8.0935   41.5462   11.6113 C.ar    1  UNL1        0.1043
     13 C           9.0036   41.4005   13.7993 C.ar    1  UNL1        0.1384
     14 C          10.2762   41.1623   13.2773 C.ar    1  UNL1        0.0310
     15 C          10.4470   41.1177   11.8930 C.ar    1  UNL1        0.0085
     16 N           7.9474   41.5860   12.9631 N.ar    1  UNL1       -0.2323
     17 CL          8.7675   41.4605   15.5324 Cl      1  UNL1       -0.0613
     18 C          11.0048   39.5288    4.2673 C.2     1  UNL1        0.3447
     19 O          11.4015   40.5373    3.6218 O.2     1  UNL1       -0.2448
     20 O          11.4325   38.2507    3.9021 O.3     1  UNL1       -0.4454
     21 C           9.5336   37.6058    2.5899 C.3     1  UNL1        0.0513
     22 C          10.5184   37.1910    3.6630 C.3     1  UNL1        0.2089
     23 C          11.7452   39.7872    7.3306 C.1     1  UNL1        0.1052
     24 N          12.8039   39.7694    7.7973 N.1     1  UNL1       -0.1907
@<TRIPOS>BOND
     1    21    22    1
     2    22    20    1
     3    18    20    1
     4    18     1    1
     5     2     6   ar
     6     3     2    1
     7     4     6   ar
     8     4     9    1
     9     7    11    1
    10    12    16   ar
    11    13    17    1
    12    13    14   ar
    13    15    11   ar
    14     5    23    1
    15     5     1   ar
    16     9     7   am
    17    18    19    2
    18     1     2   ar
    19     4     5   ar
    20     7     8    2
    21    11    12   ar
    22    13    16   ar
    23    14    15   ar
    24    23    24    3
    25     9    10    1
@<TRIPOS>MOLECULE
MolPort-008-295-443 17068714 CSSS00160395868 MCULE-4790383783 PubChem-17349465 ZINC000017068714 ZINC17068714
 24 25 0 0 0
SMALL
GASTEIGER

@<TRIPOS>ATOM
      1 C          13.6795   40.6707    8.5791 C.ar    1  UNL1        0.1198
      2 C          13.8632   41.8206    7.8186 C.ar    1  UNL1        0.1318
      3 C          15.1592   42.3534    7.3129 C.3     1  UNL1        0.0728
      4 C          11.7669   41.6916    8.1672 C.ar    1  UNL1        0.2112
      5 C          12.3137   40.5963    8.7999 C.ar    1  UNL1        0.1265
      6 O          12.7075   42.4043    7.5908 O.2     1  UNL1       -0.4431
      7 C           9.7079   42.8192    9.1186 C.2     1  UNL1        0.2531
      8 O          10.3531   43.3024   10.0890 O.2     1  UNL1       -0.2697
      9 N          10.3725   42.0118    8.1391 N.am    1  UNL1       -0.2511
     10 H           9.8338   41.6534    7.3971 H       1  UNL1        0.1580
     11 C           8.2649   43.0859    8.9916 C.ar    1  UNL1        0.0729
     12 C           7.7908   44.3928    8.8173 C.ar    1  UNL1        0.1043
     13 C           5.5470   43.6196    8.7490 C.ar    1  UNL1        0.1384
     14 C           5.9733   42.3015    8.9213 C.ar    1  UNL1        0.0310
     15 C           7.3382   42.0377    9.0426 C.ar    1  UNL1        0.0085
     16 N           6.4564   44.6296    8.7010 N.ar    1  UNL1       -0.2323
     17 CL          3.8398   43.9725    8.5948 Cl      1  UNL1       -0.0613
     18 C          14.7144   39.7296    9.0524 C.2     1  UNL1        0.3447
     19 O          14.6057   38.4968    8.8084 O.2     1  UNL1       -0.2448
     20 O          15.8130   40.2076    9.7694 O.3     1  UNL1       -0.4454
     21 C          17.9624   39.2785   10.2793 C.3     1  UNL1        0.0513
     22 C          16.5132   39.3979   10.7020 C.3     1  UNL1        0.2089
     23 C          11.5930   39.5913    9.5382 C.1     1  UNL1        0.1052
     24 N          11.0145   38.7835   10.1313 N.1     1  UNL1       -0.1907
@<TRIPOS>BOND
     1    21    22    1
     2    22    20    1
     3    18    20    1
     4    18     1    1
     5     2     6   ar
     6     3     2    1
     7     4     6   ar
     8     4     9    1
     9     7    11    1
    10    12    16   ar
    11    13    17    1
    12    13    14   ar
    13    15    11   ar
    14     5    23    1
    15     5     1   ar
    16     9     7   am
    17    18    19    2
    18     1     2   ar
    19     4     5   ar
    20     7     8    2
    21    11    12   ar
    22    13    16   ar
    23    14    15   ar
    24    23    24    3
    25     9    10    1
@<TRIPOS>MOLECULE
MolPort-008-295-443 17068714 CSSS00160395868 MCULE-4790383783 PubChem-17349465 ZINC000017068714 ZINC17068714
 24 25 0 0 0
SMALL
GASTEIGER

@<TRIPOS>ATOM
      1 C          14.5030   38.4898   10.2041 C.ar    1  UNL1        0.1198
      2 C          15.1853   39.6651    9.9082 C.ar    1  UNL1        0.1318
      3 C          16.6310   39.9363   10.1439 C.3     1  UNL1        0.0728
      4 C          13.1722   40.0017    9.3025 C.ar    1  UNL1        0.2112
      5 C          13.1958   38.7193    9.8065 C.ar    1  UNL1        0.1265
      6 O          14.3665   40.5436    9.3734 O.2     1  UNL1       -0.4431
      7 C          11.0121   41.2962    9.5751 C.2     1  UNL1        0.2531
      8 O          11.1153   41.3116   10.8324 O.2     1  UNL1       -0.2697
      9 N          12.0134   40.6552    8.7755 N.am    1  UNL1       -0.2511
     10 H          11.8963   40.6651    7.7980 H       1  UNL1        0.1580
     11 C           9.8571   41.9399    8.9260 C.ar    1  UNL1        0.0729
     12 C           9.1188   42.9264    9.5930 C.ar    1  UNL1        0.1043
     13 C           7.6727   43.1723    7.7261 C.ar    1  UNL1        0.1384
     14 C           8.3787   42.1944    7.0232 C.ar    1  UNL1        0.0310
     15 C           9.4745   41.5782    7.6288 C.ar    1  UNL1        0.0085
     16 N           8.0536   43.5153    8.9856 N.ar    1  UNL1       -0.2323
     17 CL          6.2952   43.9575    6.9851 Cl      1  UNL1       -0.0613
     18 C          15.0499   37.2602   10.8122 C.2     1  UNL1        0.3447
     19 O          15.2580   37.2093   12.0553 O.2     1  UNL1       -0.2448
     20 O          15.3352   36.1548   10.0083 O.3     1  UNL1       -0.4454
     21 C          15.5238   35.7850    7.6480 C.3     1  UNL1        0.0513
     22 C          16.2308   36.2344    8.9096 C.3     1  UNL1        0.2089
     23 C          12.0757   37.8182    9.8950 C.1     1  UNL1        0.1052
     24 N          11.1755   37.0946    9.9664 N.1     1  UNL1       -0.1907
@<TRIPOS>BOND
     1    21    22    1
     2    22    20    1
     3    18    20    1
     4    18     1    1
     5     2     6   ar
     6     3     2    1
     7     4     6   ar
     8     4     9    1
     9     7    11    1
    10    12    16   ar
    11    13    17    1
    12    13    14   ar
    13    15    11   ar
    14     5    23    1
    15     5     1   ar
    16     9     7   am
    17    18    19    2
    18     1     2   ar
    19     4     5   ar
    20     7     8    2
    21    11    12   ar
    22    13    16   ar
    23    14    15   ar
    24    23    24    3
    25     9    10    1
