@<TRIPOS>MOLECULE
MolPort-003-165-650 10220831 CSSS03437101502 MCULE-8781211404 PubChem-16831273 ZINC000010220831 ZINC10220831
 33 35 0 0 0
SMALL
GASTEIGER

@<TRIPOS>ATOM
      1 C          14.6745   41.2392    8.4279 C.ar    1  UNL1        0.1042
      2 C          14.4851   42.9530    6.2690 C.ar    1  UNL1        0.2769
      3 C          15.5920   43.0374    7.1082 C.ar    1  UNL1        0.0638
      4 C          15.6891   42.1739    8.1946 C.ar    1  UNL1        0.0259
      5 O          14.3904   43.7356    5.2854 O.2     1  UNL1       -0.2655
      6 N          13.6195   41.1992    7.5686 N.ar    1  UNL1       -0.1663
      7 N          13.5176   42.0224    6.5215 N.ar    1  UNL1       -0.2072
      8 C          16.1134   38.8143   10.9591 C.ar    1  UNL1        0.1390
      9 C          15.9814   39.6993    9.8879 C.ar    1  UNL1        0.0415
     10 C          14.7506   40.3081    9.5862 C.ar    1  UNL1        0.0563
     11 C          13.6273   40.0159   10.3992 C.ar    1  UNL1        0.1403
     12 C          13.7674   39.1228   11.4745 C.ar    1  UNL1        0.0401
     13 C          14.9965   38.5263   11.7520 C.ar    1  UNL1        0.0400
     14 C          18.5579   38.6981   10.5990 C.3     1  UNL1        0.2525
     15 O          17.3611   38.2378   11.2115 O.3     1  UNL1       -0.4714
     16 C          11.3646   40.7319   11.1207 C.3     1  UNL1        0.2525
     17 O          12.3893   40.6182   10.1423 O.3     1  UNL1       -0.4714
     18 C          12.3410   41.9206    5.6670 C.3     1  UNL1        0.2154
     19 C          11.1326   41.6404    6.4922 C.2     1  UNL1        0.2511
     20 O          11.2717   41.1764    7.6545 O.2     1  UNL1       -0.2726
     21 N           9.8335   41.8630    5.9288 N.am    1  UNL1       -0.2823
     22 H           9.8057   42.2251    5.0137 H       1  UNL1        0.1549
     23 C           8.5703   41.6132    6.5592 C.ar    1  UNL1        0.0504
     24 C           8.1476   42.4686    7.5816 C.ar    1  UNL1        0.0159
     25 C           6.9215   42.2580    8.2189 C.ar    1  UNL1        0.0159
     26 C           6.1019   41.1892    7.8425 C.ar    1  UNL1        0.0504
     27 C           6.5242   40.3304    6.8172 C.ar    1  UNL1        0.0159
     28 C           7.7498   40.5409    6.1800 C.ar    1  UNL1        0.0159
     29 C           4.1214   41.9983    9.2537 C.2     1  UNL1        0.2266
     30 C           2.8409   41.6230    9.9073 C.3     1  UNL1        0.0949
     31 O           4.5422   43.1808    9.3543 O.2     1  UNL1       -0.2748
     32 N           4.8504   41.0073    8.5188 N.am    1  UNL1       -0.2839
     33 H           4.4507   40.1087    8.4735 H       1  UNL1        0.1549
@<TRIPOS>BOND
     1    14    15    1
     2     8    15    1
     3     9    10   ar
     4    10     1    1
     5    11    17    1
     6    11    12   ar
     7    16    17    1
     8    13     8   ar
     9    18     7    1
    10    18    19    1
    11    19    21   am
    12    24    25   ar
    13    26    32    1
    14    26    27   ar
    15    30    29    1
    16    28    23   ar
    17     2     3   ar
    18     4     1   ar
    19     7     6   ar
    20     7     2   ar
    21    21    23    1
    22    32    29   am
    23     8     9   ar
    24    10    11   ar
    25    12    13   ar
    26     1     6   ar
    27    19    20    2
    28    23    24   ar
    29    25    26   ar
    30    29    31    2
    31    27    28   ar
    32     2     5    2
    33     3     4   ar
    34    21    22    1
    35    32    33    1
@<TRIPOS>MOLECULE
MolPort-003-165-650 10220831 CSSS03437101502 MCULE-8781211404 PubChem-16831273 ZINC000010220831 ZINC10220831
 33 35 0 0 0
SMALL
GASTEIGER

@<TRIPOS>ATOM
      1 C          14.8260   41.8685    7.8674 C.ar    1  UNL1        0.1042
      2 C          13.6458   43.4785    5.9572 C.ar    1  UNL1        0.2769
      3 C          14.6771   43.9938    6.7368 C.ar    1  UNL1        0.0638
      4 C          15.2730   43.1835    7.6977 C.ar    1  UNL1        0.0259
      5 O          13.0998   44.2097    5.0876 O.2     1  UNL1       -0.2655
      6 N          13.8183   41.4183    7.0706 N.ar    1  UNL1       -0.1663
      7 N          13.2407   42.1874    6.1437 N.ar    1  UNL1       -0.2072
      8 C          15.1228   39.3486   10.6816 C.ar    1  UNL1        0.1390
      9 C          14.6036   40.1954    9.7010 C.ar    1  UNL1        0.0415
     10 C          15.4419   40.9827    8.8923 C.ar    1  UNL1        0.0563
     11 C          16.8440   40.9011    9.0801 C.ar    1  UNL1        0.1403
     12 C          17.3591   40.0480   10.0703 C.ar    1  UNL1        0.0401
     13 C          16.5087   39.2802   10.8644 C.ar    1  UNL1        0.0400
     14 C          12.8639   38.9111   11.5898 C.3     1  UNL1        0.2525
     15 O          14.2418   38.5899   11.4568 O.3     1  UNL1       -0.4714
     16 C          18.0609   43.0019    8.5711 C.3     1  UNL1        0.2525
     17 O          17.7123   41.6550    8.2805 O.3     1  UNL1       -0.4714
     18 C          12.1540   41.6259    5.3507 C.3     1  UNL1        0.2154
     19 C          10.8640   41.7598    6.0839 C.2     1  UNL1        0.2511
     20 O           9.8101   42.0070    5.4406 O.2     1  UNL1       -0.2726
     21 N          10.8565   41.6487    7.5130 N.am    1  UNL1       -0.2823
     22 H          11.7201   41.4568    7.9450 H       1  UNL1        0.1549
     23 C           9.7222   41.7879    8.3787 C.ar    1  UNL1        0.0504
     24 C           8.6765   40.8655    8.2713 C.ar    1  UNL1        0.0159
     25 C           7.5548   40.9679    9.0992 C.ar    1  UNL1        0.0159
     26 C           7.4638   41.9939   10.0450 C.ar    1  UNL1        0.0504
     27 C           8.5117   42.9197   10.1542 C.ar    1  UNL1        0.0159
     28 C           9.6331   42.8175    9.3268 C.ar    1  UNL1        0.0159
     29 C           4.9346   42.1210   10.4395 C.2     1  UNL1        0.2266
     30 C           3.8493   42.2080   11.4505 C.3     1  UNL1        0.0949
     31 O           4.6376   42.0956    9.2160 O.2     1  UNL1       -0.2748
     32 N           6.2979   42.0644   10.8772 N.am    1  UNL1       -0.2839
     33 H           6.4499   42.0749   11.8499 H       1  UNL1        0.1549
@<TRIPOS>BOND
     1    14    15    1
     2     8    15    1
     3     9    10   ar
     4    10     1    1
     5    11    17    1
     6    11    12   ar
     7    16    17    1
     8    13     8   ar
     9    18     7    1
    10    18    19    1
    11    19    21   am
    12    24    25   ar
    13    26    32    1
    14    26    27   ar
    15    30    29    1
    16    28    23   ar
    17     2     3   ar
    18     4     1   ar
    19     7     6   ar
    20     7     2   ar
    21    21    23    1
    22    32    29   am
    23     8     9   ar
    24    10    11   ar
    25    12    13   ar
    26     1     6   ar
    27    19    20    2
    28    23    24   ar
    29    25    26   ar
    30    29    31    2
    31    27    28   ar
    32     2     5    2
    33     3     4   ar
    34    21    22    1
    35    32    33    1
@<TRIPOS>MOLECULE
MolPort-003-165-650 10220831 CSSS03437101502 MCULE-8781211404 PubChem-16831273 ZINC000010220831 ZINC10220831
 33 35 0 0 0
SMALL
GASTEIGER

@<TRIPOS>ATOM
      1 C          15.8582   41.0184    8.9744 C.ar    1  UNL1        0.1042
      2 C          15.9867   43.0942    7.1556 C.ar    1  UNL1        0.2769
      3 C          17.0937   42.8207    7.9535 C.ar    1  UNL1        0.0638
      4 C          17.0306   41.7747    8.8684 C.ar    1  UNL1        0.0259
      5 O          16.0374   44.0434    6.3276 O.2     1  UNL1       -0.2655
      6 N          14.8106   41.3288    8.1625 N.ar    1  UNL1       -0.1663
      7 N          14.8616   42.3297    7.2794 N.ar    1  UNL1       -0.2072
      8 C          16.8752   38.0551   11.1057 C.ar    1  UNL1        0.1390
      9 C          16.9052   39.1209   10.2050 C.ar    1  UNL1        0.0415
     10 C          15.7620   39.8982    9.9493 C.ar    1  UNL1        0.0563
     11 C          14.5597   39.5888   10.6325 C.ar    1  UNL1        0.1403
     12 C          14.5367   38.5134   11.5361 C.ar    1  UNL1        0.0401
     13 C          15.6812   37.7528   11.7704 C.ar    1  UNL1        0.0400
     14 C          18.7829   36.7267   10.2603 C.3     1  UNL1        0.2525
     15 O          18.0419   37.3164   11.3198 O.3     1  UNL1       -0.4714
     16 C          12.1350   40.0033   10.9527 C.3     1  UNL1        0.2525
     17 O          13.4053   40.3526   10.4191 O.3     1  UNL1       -0.4714
     18 C          13.6829   42.6022    6.4661 C.3     1  UNL1        0.2154
     19 C          12.4652   42.0624    7.1338 C.2     1  UNL1        0.2511
     20 O          11.9652   40.9808    6.7268 O.2     1  UNL1       -0.2726
     21 N          11.8613   42.8093    8.1978 N.am    1  UNL1       -0.2823
     22 H          12.3089   43.6466    8.4583 H       1  UNL1        0.1549
     23 C          10.6733   42.4638    8.9222 C.ar    1  UNL1        0.0504
     24 C           9.7269   41.6376    8.3079 C.ar    1  UNL1        0.0159
     25 C           8.5570   41.2778    8.9831 C.ar    1  UNL1        0.0159
     26 C           8.3179   41.7395   10.2812 C.ar    1  UNL1        0.0504
     27 C           9.2662   42.5680   10.8990 C.ar    1  UNL1        0.0159
     28 C          10.4357   42.9276   10.2242 C.ar    1  UNL1        0.0159
     29 C           5.7680   41.6099   10.5038 C.2     1  UNL1        0.2266
     30 C           4.6269   41.1380   11.3302 C.3     1  UNL1        0.0949
     31 O           5.5389   42.2300    9.4321 O.2     1  UNL1       -0.2748
     32 N           7.1069   41.3469   10.9416 N.am    1  UNL1       -0.2839
     33 H           7.2056   40.8448   11.7827 H       1  UNL1        0.1549
@<TRIPOS>BOND
     1    14    15    1
     2     8    15    1
     3     9    10   ar
     4    10     1    1
     5    11    17    1
     6    11    12   ar
     7    16    17    1
     8    13     8   ar
     9    18     7    1
    10    18    19    1
    11    19    21   am
    12    24    25   ar
    13    26    32    1
    14    26    27   ar
    15    30    29    1
    16    28    23   ar
    17     2     3   ar
    18     4     1   ar
    19     7     6   ar
    20     7     2   ar
    21    21    23    1
    22    32    29   am
    23     8     9   ar
    24    10    11   ar
    25    12    13   ar
    26     1     6   ar
    27    19    20    2
    28    23    24   ar
    29    25    26   ar
    30    29    31    2
    31    27    28   ar
    32     2     5    2
    33     3     4   ar
    34    21    22    1
    35    32    33    1
@<TRIPOS>MOLECULE
MolPort-003-165-650 10220831 CSSS03437101502 MCULE-8781211404 PubChem-16831273 ZINC000010220831 ZINC10220831
 33 35 0 0 0
SMALL
GASTEIGER

@<TRIPOS>ATOM
      1 C          14.6331   40.5540    9.1637 C.ar    1  UNL1        0.1042
      2 C          15.0385   38.8157   11.2727 C.ar    1  UNL1        0.2769
      3 C          13.7864   39.3996   11.1048 C.ar    1  UNL1        0.0638
      4 C          13.5808   40.2737   10.0423 C.ar    1  UNL1        0.0259
      5 O          15.2311   38.0258   12.2361 O.2     1  UNL1       -0.2655
      6 N          15.8332   39.9473    9.3749 N.ar    1  UNL1       -0.1663
      7 N          16.0406   39.1050   10.3907 N.ar    1  UNL1       -0.2072
      8 C          15.3515   43.2926    6.6455 C.ar    1  UNL1        0.1390
      9 C          15.4745   42.3885    7.7017 C.ar    1  UNL1        0.0415
     10 C          14.4419   41.4901    8.0229 C.ar    1  UNL1        0.0563
     11 C          13.2572   41.5061    7.2456 C.ar    1  UNL1        0.1403
     12 C          13.1398   42.4202    6.1854 C.ar    1  UNL1        0.0401
     13 C          14.1746   43.3058    5.8880 C.ar    1  UNL1        0.0400
     14 C          17.7158   43.7064    6.0477 C.3     1  UNL1        0.2525
     15 O          16.4100   44.1632    6.3725 O.3     1  UNL1       -0.4714
     16 C          11.5928   39.8139    6.5248 C.3     1  UNL1        0.2525
     17 O          12.2145   40.6129    7.5224 O.3     1  UNL1       -0.4714
     18 C          17.3654   38.5183   10.5503 C.3     1  UNL1        0.2154
     19 C          17.5615   37.4217    9.5609 C.2     1  UNL1        0.2511
     20 O          18.6562   37.3331    8.9450 O.2     1  UNL1       -0.2726
     21 N          16.4823   36.5157    9.2975 N.am    1  UNL1       -0.2823
     22 H          15.6568   36.6502    9.8168 H       1  UNL1        0.1549
     23 C          16.4801   35.4341    8.3564 C.ar    1  UNL1        0.0504
     24 C          16.1106   35.6944    7.0330 C.ar    1  UNL1        0.0159
     25 C          16.0978   34.6659    6.0865 C.ar    1  UNL1        0.0159
     26 C          16.4540   33.3635    6.4508 C.ar    1  UNL1        0.0504
     27 C          16.8251   33.1008    7.7776 C.ar    1  UNL1        0.0159
     28 C          16.8381   34.1289    8.7238 C.ar    1  UNL1        0.0159
     29 C          16.1174   32.4986    4.0618 C.2     1  UNL1        0.2266
     30 C          16.1265   31.3100    3.1703 C.3     1  UNL1        0.0949
     31 O          15.8380   33.6285    3.5811 O.2     1  UNL1       -0.2748
     32 N          16.4302   32.3358    5.4507 N.am    1  UNL1       -0.2839
     33 H          16.6517   31.4242    5.7493 H       1  UNL1        0.1549
@<TRIPOS>BOND
     1    14    15    1
     2     8    15    1
     3     9    10   ar
     4    10     1    1
     5    11    17    1
     6    11    12   ar
     7    16    17    1
     8    13     8   ar
     9    18     7    1
    10    18    19    1
    11    19    21   am
    12    24    25   ar
    13    26    32    1
    14    26    27   ar
    15    30    29    1
    16    28    23   ar
    17     2     3   ar
    18     4     1   ar
    19     7     6   ar
    20     7     2   ar
    21    21    23    1
    22    32    29   am
    23     8     9   ar
    24    10    11   ar
    25    12    13   ar
    26     1     6   ar
    27    19    20    2
    28    23    24   ar
    29    25    26   ar
    30    29    31    2
    31    27    28   ar
    32     2     5    2
    33     3     4   ar
    34    21    22    1
    35    32    33    1
@<TRIPOS>MOLECULE
MolPort-003-165-650 10220831 CSSS03437101502 MCULE-8781211404 PubChem-16831273 ZINC000010220831 ZINC10220831
 33 35 0 0 0
SMALL
GASTEIGER

@<TRIPOS>ATOM
      1 C           7.0303   42.4726   10.0147 C.ar    1  UNL1        0.1042
      2 C           9.6502   43.2529   10.4163 C.ar    1  UNL1        0.2769
      3 C           8.8303   44.0224    9.5963 C.ar    1  UNL1        0.0638
      4 C           7.5106   43.6313    9.3947 C.ar    1  UNL1        0.0259
      5 O          10.8478   43.6009   10.5993 O.2     1  UNL1       -0.2655
      6 N           7.8773   41.7646   10.8111 N.ar    1  UNL1       -0.1663
      7 N           9.1455   42.1325   11.0129 N.ar    1  UNL1       -0.2072
      8 C           3.2912   42.1381   10.5290 C.ar    1  UNL1        0.1390
      9 C           4.6259   42.5215   10.6685 C.ar    1  UNL1        0.0415
     10 C           5.6248   42.0284    9.8108 C.ar    1  UNL1        0.0563
     11 C           5.2558   41.1287    8.7801 C.ar    1  UNL1        0.1403
     12 C           3.9108   40.7459    8.6470 C.ar    1  UNL1        0.0401
     13 C           2.9377   41.2434    9.5124 C.ar    1  UNL1        0.0400
     14 C           1.9974   42.0226   12.6342 C.3     1  UNL1        0.2525
     15 O           2.3410   42.6595   11.4112 O.3     1  UNL1       -0.4714
     16 C           6.5816   41.2955    6.6901 C.3     1  UNL1        0.2525
     17 O           6.2193   40.6314    7.8935 O.3     1  UNL1       -0.4714
     18 C           9.9852   41.3005   11.8659 C.3     1  UNL1        0.2154
     19 C          10.9786   40.5596   11.0389 C.2     1  UNL1        0.2511
     20 O          10.6189   40.0603    9.9403 O.2     1  UNL1       -0.2726
     21 N          12.3139   40.3919   11.5325 N.am    1  UNL1       -0.2823
     22 H          12.5190   40.8090   12.4003 H       1  UNL1        0.1549
     23 C          13.3818   39.6797   10.8938 C.ar    1  UNL1        0.0504
     24 C          13.9196   38.5582   11.5330 C.ar    1  UNL1        0.0159
     25 C          14.9605   37.8374   10.9407 C.ar    1  UNL1        0.0159
     26 C          15.4777   38.2286    9.7018 C.ar    1  UNL1        0.0504
     27 C          14.9394   39.3531    9.0591 C.ar    1  UNL1        0.0159
     28 C          13.8987   40.0737    9.6510 C.ar    1  UNL1        0.0159
     29 C          16.5831   36.0400    8.9557 C.2     1  UNL1        0.2266
     30 C          17.7862   35.4126    8.3502 C.3     1  UNL1        0.0949
     31 O          15.6176   35.3117    9.3063 O.2     1  UNL1       -0.2748
     32 N          16.5444   37.4623    9.1257 N.am    1  UNL1       -0.2839
     33 H          17.3314   37.9655    8.8148 H       1  UNL1        0.1549
@<TRIPOS>BOND
     1    14    15    1
     2     8    15    1
     3     9    10   ar
     4    10     1    1
     5    11    17    1
     6    11    12   ar
     7    16    17    1
     8    13     8   ar
     9    18     7    1
    10    18    19    1
    11    19    21   am
    12    24    25   ar
    13    26    32    1
    14    26    27   ar
    15    30    29    1
    16    28    23   ar
    17     2     3   ar
    18     4     1   ar
    19     7     6   ar
    20     7     2   ar
    21    21    23    1
    22    32    29   am
    23     8     9   ar
    24    10    11   ar
    25    12    13   ar
    26     1     6   ar
    27    19    20    2
    28    23    24   ar
    29    25    26   ar
    30    29    31    2
    31    27    28   ar
    32     2     5    2
    33     3     4   ar
    34    21    22    1
    35    32    33    1
@<TRIPOS>MOLECULE
MolPort-003-165-650 10220831 CSSS03437101502 MCULE-8781211404 PubChem-16831273 ZINC000010220831 ZINC10220831
 33 35 0 0 0
SMALL
GASTEIGER

@<TRIPOS>ATOM
      1 C          16.0254   41.2398    8.7740 C.ar    1  UNL1        0.1042
      2 C          16.3496   43.4353    7.1283 C.ar    1  UNL1        0.2769
      3 C          17.3741   43.0845    8.0025 C.ar    1  UNL1        0.0638
      4 C          17.2125   41.9783    8.8304 C.ar    1  UNL1        0.0259
      5 O          16.4895   44.4390    6.3787 O.2     1  UNL1       -0.2655
      6 N          15.0619   41.6271    7.8940 N.ar    1  UNL1       -0.1663
      7 N          15.2078   42.6864    7.0933 N.ar    1  UNL1       -0.2072
      8 C          14.2614   38.5437   10.7683 C.ar    1  UNL1        0.1390
      9 C          14.5128   39.6438    9.9469 C.ar    1  UNL1        0.0415
     10 C          15.8244   40.0560    9.6531 C.ar    1  UNL1        0.0563
     11 C          16.9080   39.3262   10.2018 C.ar    1  UNL1        0.1403
     12 C          16.6473   38.2212   11.0291 C.ar    1  UNL1        0.0401
     13 C          15.3383   37.8335   11.3114 C.ar    1  UNL1        0.0400
     14 C          11.8616   38.5348   10.1685 C.3     1  UNL1        0.2525
     15 O          12.9372   38.1801   11.0270 O.3     1  UNL1       -0.4714
     16 C          19.2783   38.7499    9.7511 C.3     1  UNL1        0.2525
     17 O          18.2288   39.6942    9.9158 O.3     1  UNL1       -0.4714
     18 C          14.1134   43.0386    6.1972 C.3     1  UNL1        0.2154
     19 C          12.8311   42.4823    6.7130 C.2     1  UNL1        0.2511
     20 O          12.1125   41.7796    5.9545 O.2     1  UNL1       -0.2726
     21 N          12.4197   42.7961    8.0498 N.am    1  UNL1       -0.2823
     22 H          13.0337   43.3529    8.5810 H       1  UNL1        0.1549
     23 C          11.2071   42.3832    8.6938 C.ar    1  UNL1        0.0504
     24 C          10.8320   43.0092    9.8868 C.ar    1  UNL1        0.0159
     25 C           9.6558   42.6348   10.5429 C.ar    1  UNL1        0.0159
     26 C           8.8395   41.6295   10.0150 C.ar    1  UNL1        0.0504
     27 C           9.2141   41.0009    8.8185 C.ar    1  UNL1        0.0159
     28 C          10.3898   41.3751    8.1625 C.ar    1  UNL1        0.0159
     29 C           6.2988   41.6242   10.3518 C.2     1  UNL1        0.2266
     30 C           5.1721   41.1802   11.2127 C.3     1  UNL1        0.0949
     31 O           6.0556   42.2969    9.3155 O.2     1  UNL1       -0.2748
     32 N           7.6399   41.2749   10.7165 N.am    1  UNL1       -0.2839
     33 H           7.7490   40.7357   11.5329 H       1  UNL1        0.1549
@<TRIPOS>BOND
     1    14    15    1
     2     8    15    1
     3     9    10   ar
     4    10     1    1
     5    11    17    1
     6    11    12   ar
     7    16    17    1
     8    13     8   ar
     9    18     7    1
    10    18    19    1
    11    19    21   am
    12    24    25   ar
    13    26    32    1
    14    26    27   ar
    15    30    29    1
    16    28    23   ar
    17     2     3   ar
    18     4     1   ar
    19     7     6   ar
    20     7     2   ar
    21    21    23    1
    22    32    29   am
    23     8     9   ar
    24    10    11   ar
    25    12    13   ar
    26     1     6   ar
    27    19    20    2
    28    23    24   ar
    29    25    26   ar
    30    29    31    2
    31    27    28   ar
    32     2     5    2
    33     3     4   ar
    34    21    22    1
    35    32    33    1
@<TRIPOS>MOLECULE
MolPort-003-165-650 10220831 CSSS03437101502 MCULE-8781211404 PubChem-16831273 ZINC000010220831 ZINC10220831
 33 35 0 0 0
SMALL
GASTEIGER

@<TRIPOS>ATOM
      1 C          10.6904   40.8592    6.6044 C.ar    1  UNL1        0.1042
      2 C           8.0873   40.1222    6.0438 C.ar    1  UNL1        0.2769
      3 C           9.0791   39.1463    6.0691 C.ar    1  UNL1        0.0638
      4 C          10.3898   39.5161    6.3528 C.ar    1  UNL1        0.0259
      5 O           6.8986   39.7930    5.7834 O.2     1  UNL1       -0.2655
      6 N           9.6770   41.7675    6.5724 N.ar    1  UNL1       -0.1663
      7 N           8.4150   41.4227    6.3030 N.ar    1  UNL1       -0.2072
      8 C          13.9869   42.7080    6.3339 C.ar    1  UNL1        0.1390
      9 C          12.6807   42.2731    6.1038 C.ar    1  UNL1        0.0415
     10 C          12.0852   41.2826    6.9043 C.ar    1  UNL1        0.0563
     11 C          12.8339   40.7258    7.9707 C.ar    1  UNL1        0.1403
     12 C          14.1485   41.1672    8.1951 C.ar    1  UNL1        0.0401
     13 C          14.7209   42.1470    7.3853 C.ar    1  UNL1        0.0400
     14 C          15.4241   44.6900    5.9807 C.3     1  UNL1        0.2525
     15 O          14.5279   43.6948    5.5055 O.3     1  UNL1       -0.4714
     16 C          12.7149   39.5103   10.1299 C.3     1  UNL1        0.2525
     17 O          12.2679   39.7513    8.8024 O.3     1  UNL1       -0.4714
     18 C           7.3990   42.4675    6.2700 C.3     1  UNL1        0.2154
     19 C           6.7424   42.5842    7.6023 C.2     1  UNL1        0.2511
     20 O           7.1893   43.4098    8.4416 O.2     1  UNL1       -0.2726
     21 N           5.6420   41.7216    7.9182 N.am    1  UNL1       -0.2823
     22 H           5.3511   41.1010    7.2115 H       1  UNL1        0.1549
     23 C           4.9208   41.6687    9.1562 C.ar    1  UNL1        0.0504
     24 C           3.5228   41.6603    9.1207 C.ar    1  UNL1        0.0159
     25 C           2.7852   41.6077   10.3069 C.ar    1  UNL1        0.0159
     26 C           3.4355   41.5632   11.5441 C.ar    1  UNL1        0.0504
     27 C           4.8376   41.5713   11.5815 C.ar    1  UNL1        0.0159
     28 C           5.5751   41.6238   10.3958 C.ar    1  UNL1        0.0159
     29 C           1.4353   42.2321   13.0002 C.2     1  UNL1        0.2266
     30 C           0.7543   42.0616   14.3097 C.3     1  UNL1        0.0949
     31 O           0.9373   43.0074   12.1420 O.2     1  UNL1       -0.2748
     32 N           2.6439   41.5080   12.7387 N.am    1  UNL1       -0.2839
     33 H           2.9640   40.9109   13.4530 H       1  UNL1        0.1549
@<TRIPOS>BOND
     1    14    15    1
     2     8    15    1
     3     9    10   ar
     4    10     1    1
     5    11    17    1
     6    11    12   ar
     7    16    17    1
     8    13     8   ar
     9    18     7    1
    10    18    19    1
    11    19    21   am
    12    24    25   ar
    13    26    32    1
    14    26    27   ar
    15    30    29    1
    16    28    23   ar
    17     2     3   ar
    18     4     1   ar
    19     7     6   ar
    20     7     2   ar
    21    21    23    1
    22    32    29   am
    23     8     9   ar
    24    10    11   ar
    25    12    13   ar
    26     1     6   ar
    27    19    20    2
    28    23    24   ar
    29    25    26   ar
    30    29    31    2
    31    27    28   ar
    32     2     5    2
    33     3     4   ar
    34    21    22    1
    35    32    33    1
@<TRIPOS>MOLECULE
MolPort-003-165-650 10220831 CSSS03437101502 MCULE-8781211404 PubChem-16831273 ZINC000010220831 ZINC10220831
 33 35 0 0 0
SMALL
GASTEIGER

@<TRIPOS>ATOM
      1 C          14.8893   40.5546    8.8672 C.ar    1  UNL1        0.1042
      2 C          15.0638   42.6674    7.0953 C.ar    1  UNL1        0.2769
      3 C          16.1173   42.4278    7.9726 C.ar    1  UNL1        0.0638
      4 C          16.0311   41.3633    8.8640 C.ar    1  UNL1        0.0259
      5 O          15.1352   43.6330    6.2881 O.2     1  UNL1       -0.2655
      6 N          13.8944   40.8339    7.9811 N.ar    1  UNL1       -0.1663
      7 N          13.9680   41.8522    7.1197 N.ar    1  UNL1       -0.2072
      8 C          13.3799   37.6327   10.7492 C.ar    1  UNL1        0.1390
      9 C          13.5539   38.7089    9.8776 C.ar    1  UNL1        0.0415
     10 C          14.7689   39.4135    9.8146 C.ar    1  UNL1        0.0563
     11 C          15.8367   39.0084   10.6534 C.ar    1  UNL1        0.1403
     12 C          15.6536   37.9256   11.5294 C.ar    1  UNL1        0.0401
     13 C          14.4381   37.2447   11.5789 C.ar    1  UNL1        0.0400
     14 C          11.1557   37.1646    9.7733 C.3     1  UNL1        0.2525
     15 O          12.1498   36.9699   10.7698 O.3     1  UNL1       -0.4714
     16 C          18.3081   39.0283   10.8668 C.3     1  UNL1        0.2525
     17 O          17.0687   39.6730   10.6050 O.3     1  UNL1       -0.4714
     18 C          12.8443   42.0879    6.2215 C.3     1  UNL1        0.2154
     19 C          11.5637   42.0394    6.9813 C.2     1  UNL1        0.2511
     20 O          11.5437   42.4128    8.1838 O.2     1  UNL1       -0.2726
     21 N          10.3888   41.5259    6.3404 N.am    1  UNL1       -0.2823
     22 H          10.4838   41.2514    5.3997 H       1  UNL1        0.1549
     23 C           9.0898   41.3704    6.9268 C.ar    1  UNL1        0.0504
     24 C           7.9931   41.1565    6.0858 C.ar    1  UNL1        0.0159
     25 C           6.7113   40.9988    6.6207 C.ar    1  UNL1        0.0159
     26 C           6.5092   41.0531    8.0034 C.ar    1  UNL1        0.0504
     27 C           7.6080   41.2673    8.8483 C.ar    1  UNL1        0.0159
     28 C           8.8894   41.4248    8.3138 C.ar    1  UNL1        0.0159
     29 C           4.3487   41.8994    9.0921 C.2     1  UNL1        0.2266
     30 C           2.9954   41.5365    9.5863 C.3     1  UNL1        0.0949
     31 O           4.7411   43.0922    9.1870 O.2     1  UNL1       -0.2748
     32 N           5.1795   40.8850    8.5140 N.am    1  UNL1       -0.2839
     33 H           4.7981   39.9788    8.4619 H       1  UNL1        0.1549
@<TRIPOS>BOND
     1    14    15    1
     2     8    15    1
     3     9    10   ar
     4    10     1    1
     5    11    17    1
     6    11    12   ar
     7    16    17    1
     8    13     8   ar
     9    18     7    1
    10    18    19    1
    11    19    21   am
    12    24    25   ar
    13    26    32    1
    14    26    27   ar
    15    30    29    1
    16    28    23   ar
    17     2     3   ar
    18     4     1   ar
    19     7     6   ar
    20     7     2   ar
    21    21    23    1
    22    32    29   am
    23     8     9   ar
    24    10    11   ar
    25    12    13   ar
    26     1     6   ar
    27    19    20    2
    28    23    24   ar
    29    25    26   ar
    30    29    31    2
    31    27    28   ar
    32     2     5    2
    33     3     4   ar
    34    21    22    1
    35    32    33    1
@<TRIPOS>MOLECULE
MolPort-003-165-650 10220831 CSSS03437101502 MCULE-8781211404 PubChem-16831273 ZINC000010220831 ZINC10220831
 33 35 0 0 0
SMALL
GASTEIGER

@<TRIPOS>ATOM
      1 C          15.3908   40.7580    9.0224 C.ar    1  UNL1        0.1042
      2 C          16.0740   38.9790   11.0229 C.ar    1  UNL1        0.2769
      3 C          17.0629   39.7797   10.4591 C.ar    1  UNL1        0.0638
      4 C          16.7196   40.6769    9.4529 C.ar    1  UNL1        0.0259
      5 O          16.3804   38.1617   11.9324 O.2     1  UNL1       -0.2655
      6 N          14.4665   39.9543    9.6163 N.ar    1  UNL1       -0.1663
      7 N          14.7852   39.0910   10.5845 N.ar    1  UNL1       -0.2072
      8 C          13.2687   42.4956    6.4079 C.ar    1  UNL1        0.1390
      9 C          13.6936   41.6370    7.4230 C.ar    1  UNL1        0.0415
     10 C          14.9979   41.7046    7.9435 C.ar    1  UNL1        0.0563
     11 C          15.8903   42.6751    7.4242 C.ar    1  UNL1        0.1403
     12 C          15.4561   43.5345    6.4013 C.ar    1  UNL1        0.0401
     13 C          14.1597   43.4461    5.8964 C.ar    1  UNL1        0.0400
     14 C          11.2615   41.1459    5.8901 C.3     1  UNL1        0.2525
     15 O          11.9611   42.3822    5.9282 O.3     1  UNL1       -0.4714
     16 C          17.9574   43.9804    7.8445 C.3     1  UNL1        0.2525
     17 O          17.1912   42.7864    7.9310 O.3     1  UNL1       -0.4714
     18 C          13.7318   38.2555   11.1477 C.3     1  UNL1        0.2154
     19 C          12.3952   38.8127   10.7974 C.2     1  UNL1        0.2511
     20 O          11.5846   38.1080   10.1400 O.2     1  UNL1       -0.2726
     21 N          12.0760   40.1574   11.1777 N.am    1  UNL1       -0.2823
     22 H          12.7617   40.6460   11.6878 H       1  UNL1        0.1549
     23 C          10.8620   40.8648   10.8924 C.ar    1  UNL1        0.0504
     24 C          10.6378   41.3180    9.5886 C.ar    1  UNL1        0.0159
     25 C           9.4654   42.0101    9.2718 C.ar    1  UNL1        0.0159
     26 C           8.5019   42.2583   10.2545 C.ar    1  UNL1        0.0504
     27 C           8.7250   41.8042   11.5626 C.ar    1  UNL1        0.0159
     28 C           9.8969   41.1122   11.8794 C.ar    1  UNL1        0.0159
     29 C           6.1062   42.4076    9.3560 C.2     1  UNL1        0.2266
     30 C           4.9718   43.3059    9.0186 C.3     1  UNL1        0.0949
     31 O           5.9881   41.1678    9.1698 O.2     1  UNL1       -0.2748
     32 N           7.3113   42.9700    9.8899 N.am    1  UNL1       -0.2839
     33 H           7.3231   43.9458   10.0199 H       1  UNL1        0.1549
@<TRIPOS>BOND
     1    14    15    1
     2     8    15    1
     3     9    10   ar
     4    10     1    1
     5    11    17    1
     6    11    12   ar
     7    16    17    1
     8    13     8   ar
     9    18     7    1
    10    18    19    1
    11    19    21   am
    12    24    25   ar
    13    26    32    1
    14    26    27   ar
    15    30    29    1
    16    28    23   ar
    17     2     3   ar
    18     4     1   ar
    19     7     6   ar
    20     7     2   ar
    21    21    23    1
    22    32    29   am
    23     8     9   ar
    24    10    11   ar
    25    12    13   ar
    26     1     6   ar
    27    19    20    2
    28    23    24   ar
    29    25    26   ar
    30    29    31    2
    31    27    28   ar
    32     2     5    2
    33     3     4   ar
    34    21    22    1
    35    32    33    1
@<TRIPOS>MOLECULE
MolPort-003-165-650 10220831 CSSS03437101502 MCULE-8781211404 PubChem-16831273 ZINC000010220831 ZINC10220831
 33 35 0 0 0
SMALL
GASTEIGER

@<TRIPOS>ATOM
      1 C          14.3894   40.7646    8.7845 C.ar    1  UNL1        0.1042
      2 C          14.0724   38.8447   10.7460 C.ar    1  UNL1        0.2769
      3 C          15.3456   39.3392   10.4789 C.ar    1  UNL1        0.0638
      4 C          15.5060   40.3070    9.4926 C.ar    1  UNL1        0.0259
      5 O          13.9220   37.9649   11.6361 O.2     1  UNL1       -0.2655
      6 N          13.1686   40.2487    9.0951 N.ar    1  UNL1       -0.1663
      7 N          13.0033   39.3207   10.0415 N.ar    1  UNL1       -0.2072
      8 C          15.9199   43.5157    6.6757 C.ar    1  UNL1        0.1390
      9 C          15.7278   42.5339    7.6491 C.ar    1  UNL1        0.0415
     10 C          14.5341   41.7946    7.7203 C.ar    1  UNL1        0.0563
     11 C          13.5129   42.0547    6.7729 C.ar    1  UNL1        0.1403
     12 C          13.7127   43.0456    5.7974 C.ar    1  UNL1        0.0401
     13 C          14.9026   43.7703    5.7488 C.ar    1  UNL1        0.0400
     14 C          18.1043   44.1015    7.6777 C.3     1  UNL1        0.2525
     15 O          17.1266   44.2201    6.6533 O.3     1  UNL1       -0.4714
     16 C          11.1900   41.6552    5.9995 C.3     1  UNL1        0.2525
     17 O          12.3176   41.3251    6.7994 O.3     1  UNL1       -0.4714
     18 C          11.6605   38.8112   10.2910 C.3     1  UNL1        0.2154
     19 C          10.6578   39.8956   10.0956 C.2     1  UNL1        0.2511
     20 O          10.4514   40.7214   11.0236 O.2     1  UNL1       -0.2726
     21 N           9.9155   39.9499    8.8705 N.am    1  UNL1       -0.2823
     22 H          10.1314   39.2686    8.1934 H       1  UNL1        0.1549
     23 C           8.8912   40.8931    8.5287 C.ar    1  UNL1        0.0504
     24 C           7.8609   40.4875    7.6746 C.ar    1  UNL1        0.0159
     25 C           6.8438   41.3783    7.3199 C.ar    1  UNL1        0.0159
     26 C           6.8437   42.6865    7.8143 C.ar    1  UNL1        0.0504
     27 C           7.8762   43.0949    8.6712 C.ar    1  UNL1        0.0159
     28 C           8.8929   42.2044    9.0260 C.ar    1  UNL1        0.0159
     29 C           4.7255   44.0569    8.2659 C.2     1  UNL1        0.2266
     30 C           3.6958   44.9581    7.6870 C.3     1  UNL1        0.0949
     31 O           4.6538   43.7387    9.4821 O.2     1  UNL1       -0.2748
     32 N           5.7819   43.5702    7.4288 N.am    1  UNL1       -0.2839
     33 H           5.7784   43.8738    6.4923 H       1  UNL1        0.1549
@<TRIPOS>BOND
     1    14    15    1
     2     8    15    1
     3     9    10   ar
     4    10     1    1
     5    11    17    1
     6    11    12   ar
     7    16    17    1
     8    13     8   ar
     9    18     7    1
    10    18    19    1
    11    19    21   am
    12    24    25   ar
    13    26    32    1
    14    26    27   ar
    15    30    29    1
    16    28    23   ar
    17     2     3   ar
    18     4     1   ar
    19     7     6   ar
    20     7     2   ar
    21    21    23    1
    22    32    29   am
    23     8     9   ar
    24    10    11   ar
    25    12    13   ar
    26     1     6   ar
    27    19    20    2
    28    23    24   ar
    29    25    26   ar
    30    29    31    2
    31    27    28   ar
    32     2     5    2
    33     3     4   ar
    34    21    22    1
    35    32    33    1
