@<TRIPOS>MOLECULE
MolPort-001-579-848 CHEMBL1565019 CSSS00121683242 LN00895763 MCULE-8804048403 PubChem-3158579
 27 29 0 0 0
SMALL
GASTEIGER

@<TRIPOS>ATOM
      1 C          10.2710   41.2988    8.1815 C.ar    1  UNL1        0.1403
      2 C           9.6207   41.1050    6.9524 C.ar    1  UNL1        0.0370
      3 C          10.3376   41.1884    5.7568 C.ar    1  UNL1        0.0044
      4 C          11.7065   41.4656    5.7826 C.ar    1  UNL1        0.0149
      5 C          12.3680   41.6611    7.0043 C.ar    1  UNL1        0.0537
      6 C          11.6418   41.5755    8.1973 C.ar    1  UNL1        0.0516
      7 C          14.4196   43.1676    6.6880 C.2     1  UNL1        0.2842
      8 O          13.7560   44.1419    6.2416 O.2     1  UNL1       -0.2665
      9 N          13.7718   41.9467    7.0708 N.am    1  UNL1       -0.2778
     10 H          14.3516   41.2295    7.4154 H       1  UNL1        0.1553
     11 C          15.8759   43.2786    6.8210 C.ar    1  UNL1        0.1988
     12 C          16.6288   42.7650    7.8561 C.ar    1  UNL1        0.0455
     13 C          17.9328   43.1152    7.5518 C.ar    1  UNL1        0.0440
     14 C          17.8867   43.8147    6.3578 C.ar    1  UNL1        0.1798
     15 O          16.6416   43.8908    5.9542 O.2     1  UNL1       -0.4458
     16 O           9.5808   41.2249    9.3949 O.3     1  UNL1       -0.4713
     17 C          10.4704   43.2517   10.3443 C.3     1  UNL1        0.0559
     18 C           9.2448   42.3777   10.1570 C.3     1  UNL1        0.2267
     19 C           8.1421   43.1363    9.4855 C.2     1  UNL1        0.2127
     20 O           8.4137   44.1965    8.8578 O.2     1  UNL1       -0.2875
     21 C           6.7514   42.6445    9.5367 C.ar    1  UNL1        0.0383
     22 C           5.7450   43.2629    8.7787 C.ar    1  UNL1        0.0026
     23 C           4.4285   42.7962    8.8343 C.ar    1  UNL1       -0.0042
     24 C           4.1076   41.7070    9.6484 C.ar    1  UNL1       -0.0218
     25 C           2.7081   41.2108    9.7080 C.3     1  UNL1        0.0310
     26 C           5.1025   41.0845   10.4070 C.ar    1  UNL1       -0.0042
     27 C           6.4189   41.5518   10.3516 C.ar    1  UNL1        0.0026
@<TRIPOS>BOND
     1    18    17    1
     2    18    16    1
     3    18    19    1
     4     1    16    1
     5     2     3   ar
     6     4     5   ar
     7     5     9    1
     8     7    11    1
     9    11    15   ar
    10    12    13   ar
    11    14    15   ar
    12     6     1   ar
    13    19    21    1
    14    22    23   ar
    15    24    26   ar
    16    25    24    1
    17    27    21   ar
    18     9     7   am
    19     1     2   ar
    20     3     4   ar
    21     5     6   ar
    22     7     8    2
    23    11    12   ar
    24    13    14   ar
    25    19    20    2
    26    21    22   ar
    27    23    24   ar
    28    26    27   ar
    29     9    10    1
@<TRIPOS>MOLECULE
MolPort-001-579-848 CHEMBL1565019 CSSS00121683242 LN00895763 MCULE-8804048403 PubChem-3158579
 27 29 0 0 0
SMALL
GASTEIGER

@<TRIPOS>ATOM
      1 C           8.5180   41.0481    6.2446 C.ar    1  UNL1        0.1403
      2 C           8.5394   39.6820    5.9216 C.ar    1  UNL1        0.0370
      3 C           9.7302   39.0730    5.5198 C.ar    1  UNL1        0.0044
      4 C          10.9048   39.8247    5.4385 C.ar    1  UNL1        0.0149
      5 C          10.8968   41.1906    5.7587 C.ar    1  UNL1        0.0537
      6 C           9.6992   41.7924    6.1605 C.ar    1  UNL1        0.0516
      7 C          12.8461   42.4985    6.7921 C.2     1  UNL1        0.2842
      8 O          12.5097   42.2496    7.9812 O.2     1  UNL1       -0.2665
      9 N          12.0823   41.9944    5.6879 N.am    1  UNL1       -0.2778
     10 H          12.4058   42.2241    4.7869 H       1  UNL1        0.1553
     11 C          14.0357   43.3145    6.5278 C.ar    1  UNL1        0.1988
     12 C          15.3278   42.9881    6.8825 C.ar    1  UNL1        0.0455
     13 C          16.0962   44.0471    6.4308 C.ar    1  UNL1        0.0440
     14 C          15.2247   44.9424    5.8341 C.ar    1  UNL1        0.1798
     15 O          14.0046   44.4690    5.9126 O.2     1  UNL1       -0.4458
     16 O           7.3418   41.6873    6.6470 O.3     1  UNL1       -0.4713
     17 C           6.0241   43.7005    6.5397 C.3     1  UNL1        0.0559
     18 C           7.3063   43.0561    7.0315 C.3     1  UNL1        0.2267
     19 C           7.4318   43.1773    8.5187 C.2     1  UNL1        0.2127
     20 O           8.4391   43.7575    9.0093 O.2     1  UNL1       -0.2875
     21 C           6.3822   42.6427    9.4081 C.ar    1  UNL1        0.0383
     22 C           5.0628   43.1137    9.3222 C.ar    1  UNL1        0.0026
     23 C           4.0734   42.6073   10.1700 C.ar    1  UNL1       -0.0042
     24 C           4.3952   41.6256   11.1106 C.ar    1  UNL1       -0.0218
     25 C           3.3436   41.0874   12.0121 C.3     1  UNL1        0.0310
     26 C           5.7059   41.1502   11.2039 C.ar    1  UNL1       -0.0042
     27 C           6.6954   41.6571   10.3563 C.ar    1  UNL1        0.0026
@<TRIPOS>BOND
     1    18    17    1
     2    18    16    1
     3    18    19    1
     4     1    16    1
     5     2     3   ar
     6     4     5   ar
     7     5     9    1
     8     7    11    1
     9    11    15   ar
    10    12    13   ar
    11    14    15   ar
    12     6     1   ar
    13    19    21    1
    14    22    23   ar
    15    24    26   ar
    16    25    24    1
    17    27    21   ar
    18     9     7   am
    19     1     2   ar
    20     3     4   ar
    21     5     6   ar
    22     7     8    2
    23    11    12   ar
    24    13    14   ar
    25    19    20    2
    26    21    22   ar
    27    23    24   ar
    28    26    27   ar
    29     9    10    1
@<TRIPOS>MOLECULE
MolPort-001-579-848 CHEMBL1565019 CSSS00121683242 LN00895763 MCULE-8804048403 PubChem-3158579
 27 29 0 0 0
SMALL
GASTEIGER

@<TRIPOS>ATOM
      1 C           9.6654   41.6619    6.7467 C.ar    1  UNL1        0.1403
      2 C           9.4872   40.4580    6.0467 C.ar    1  UNL1        0.0370
      3 C          10.5772   39.6208    5.7990 C.ar    1  UNL1        0.0044
      4 C          11.8497   39.9813    6.2487 C.ar    1  UNL1        0.0149
      5 C          12.0409   41.1815    6.9495 C.ar    1  UNL1        0.0537
      6 C          10.9431   42.0142    7.1934 C.ar    1  UNL1        0.0516
      7 C          14.2444   42.4836    6.7826 C.2     1  UNL1        0.2842
      8 O          13.9550   43.0221    5.6802 O.2     1  UNL1       -0.2665
      9 N          13.3315   41.5849    7.4273 N.am    1  UNL1       -0.2778
     10 H          13.6212   41.2049    8.2881 H       1  UNL1        0.1553
     11 C          15.5318   42.7775    7.4206 C.ar    1  UNL1        0.1988
     12 C          16.2496   43.9465    7.2784 C.ar    1  UNL1        0.0455
     13 C          17.3798   43.7637    8.0562 C.ar    1  UNL1        0.0440
     14 C          17.2746   42.5022    8.6172 C.ar    1  UNL1        0.1798
     15 O          16.1581   41.9460    8.2133 O.2     1  UNL1       -0.4458
     16 O           8.5954   42.5227    7.0077 O.3     1  UNL1       -0.4713
     17 C           6.9418   40.8438    6.5100 C.3     1  UNL1        0.0559
     18 C           7.2996   42.0511    7.3559 C.3     1  UNL1        0.2267
     19 C           7.2467   41.7190    8.8151 C.2     1  UNL1        0.2127
     20 O           8.2964   41.3357    9.4007 O.2     1  UNL1       -0.2875
     21 C           5.9869   41.8548    9.5720 C.ar    1  UNL1        0.0383
     22 C           5.8382   41.2487   10.8292 C.ar    1  UNL1        0.0026
     23 C           4.6413   41.3765   11.5400 C.ar    1  UNL1       -0.0042
     24 C           3.5832   42.1116   10.9994 C.ar    1  UNL1       -0.0218
     25 C           2.3106   42.2473   11.7546 C.3     1  UNL1        0.0310
     26 C           3.7214   42.7187    9.7484 C.ar    1  UNL1       -0.0042
     27 C           4.9183   42.5903    9.0375 C.ar    1  UNL1        0.0026
@<TRIPOS>BOND
     1    18    17    1
     2    18    16    1
     3    18    19    1
     4     1    16    1
     5     2     3   ar
     6     4     5   ar
     7     5     9    1
     8     7    11    1
     9    11    15   ar
    10    12    13   ar
    11    14    15   ar
    12     6     1   ar
    13    19    21    1
    14    22    23   ar
    15    24    26   ar
    16    25    24    1
    17    27    21   ar
    18     9     7   am
    19     1     2   ar
    20     3     4   ar
    21     5     6   ar
    22     7     8    2
    23    11    12   ar
    24    13    14   ar
    25    19    20    2
    26    21    22   ar
    27    23    24   ar
    28    26    27   ar
    29     9    10    1
@<TRIPOS>MOLECULE
MolPort-001-579-848 CHEMBL1565019 CSSS00121683242 LN00895763 MCULE-8804048403 PubChem-3158579
 27 29 0 0 0
SMALL
GASTEIGER

@<TRIPOS>ATOM
      1 C          10.2155   41.7833    7.7296 C.ar    1  UNL1        0.1403
      2 C           9.6305   41.2401    6.5747 C.ar    1  UNL1        0.0370
      3 C          10.4002   41.0314    5.4282 C.ar    1  UNL1        0.0044
      4 C          11.7571   41.3638    5.4294 C.ar    1  UNL1        0.0149
      5 C          12.3536   41.9071    6.5771 C.ar    1  UNL1        0.0537
      6 C          11.5748   42.1126    7.7213 C.ar    1  UNL1        0.0516
      7 C          14.3345   43.4771    6.1416 C.2     1  UNL1        0.2842
      8 O          13.6270   44.3847    5.6270 O.2     1  UNL1       -0.2665
      9 N          13.7430   42.2600    6.6165 N.am    1  UNL1       -0.2778
     10 H          14.3550   41.5972    7.0109 H       1  UNL1        0.1553
     11 C          15.7843   43.6634    6.2600 C.ar    1  UNL1        0.1988
     12 C          16.5114   43.5803    7.4290 C.ar    1  UNL1        0.0455
     13 C          17.8195   43.8262    7.0494 C.ar    1  UNL1        0.0440
     14 C          17.8012   44.0412    5.6817 C.ar    1  UNL1        0.1798
     15 O          16.5684   43.9356    5.2484 O.2     1  UNL1       -0.4458
     16 O           9.4714   42.0072    8.8916 O.3     1  UNL1       -0.4713
     17 C           9.2663   43.3850   10.8564 C.3     1  UNL1        0.0559
     18 C          10.0757   42.3204   10.1403 C.3     1  UNL1        0.2267
     19 C          10.1985   41.0853   10.9781 C.2     1  UNL1        0.2127
     20 O           9.4623   40.9512   11.9939 O.2     1  UNL1       -0.2875
     21 C          11.1555   40.0222   10.6146 C.ar    1  UNL1        0.0383
     22 C          12.4979   40.0991   11.0171 C.ar    1  UNL1        0.0026
     23 C          13.4014   39.0917   10.6663 C.ar    1  UNL1       -0.0042
     24 C          12.9698   37.9990    9.9101 C.ar    1  UNL1       -0.0218
     25 C          13.9301   36.9281    9.5368 C.3     1  UNL1        0.0310
     26 C          11.6353   37.9132    9.5045 C.ar    1  UNL1       -0.0042
     27 C          10.7321   38.9211    9.8550 C.ar    1  UNL1        0.0026
@<TRIPOS>BOND
     1    18    17    1
     2    18    16    1
     3    18    19    1
     4     1    16    1
     5     2     3   ar
     6     4     5   ar
     7     5     9    1
     8     7    11    1
     9    11    15   ar
    10    12    13   ar
    11    14    15   ar
    12     6     1   ar
    13    19    21    1
    14    22    23   ar
    15    24    26   ar
    16    25    24    1
    17    27    21   ar
    18     9     7   am
    19     1     2   ar
    20     3     4   ar
    21     5     6   ar
    22     7     8    2
    23    11    12   ar
    24    13    14   ar
    25    19    20    2
    26    21    22   ar
    27    23    24   ar
    28    26    27   ar
    29     9    10    1
@<TRIPOS>MOLECULE
MolPort-001-579-848 CHEMBL1565019 CSSS00121683242 LN00895763 MCULE-8804048403 PubChem-3158579
 27 29 0 0 0
SMALL
GASTEIGER

@<TRIPOS>ATOM
      1 C           9.6369   41.9066    6.8188 C.ar    1  UNL1        0.1403
      2 C           9.3571   41.0868    5.7140 C.ar    1  UNL1        0.0370
      3 C          10.3987   40.5008    4.9915 C.ar    1  UNL1        0.0044
      4 C          11.7241   40.7304    5.3684 C.ar    1  UNL1        0.0149
      5 C          12.0170   41.5474    6.4707 C.ar    1  UNL1        0.0537
      6 C          10.9670   42.1303    7.1888 C.ar    1  UNL1        0.0516
      7 C          14.1353   42.9855    6.6226 C.2     1  UNL1        0.2842
      8 O          13.6485   43.9443    5.9647 O.2     1  UNL1       -0.2665
      9 N          13.3644   41.8056    6.8881 N.am    1  UNL1       -0.2778
     10 H          13.8066   41.0989    7.4117 H       1  UNL1        0.1553
     11 C          15.5095   43.0726    7.1274 C.ar    1  UNL1        0.1988
     12 C          16.0879   42.2086    8.0335 C.ar    1  UNL1        0.0455
     13 C          17.3762   42.6854    8.2030 C.ar    1  UNL1        0.0440
     14 C          17.4951   43.8018    7.3928 C.ar    1  UNL1        0.1798
     15 O          16.3598   43.9998    6.7677 O.2     1  UNL1       -0.4458
     16 O           8.6169   42.5099    7.5602 O.3     1  UNL1       -0.4713
     17 C           7.2897   40.5113    7.3479 C.3     1  UNL1        0.0559
     18 C           7.5593   41.7676    8.1544 C.3     1  UNL1        0.2267
     19 C           7.8988   41.4318    9.5736 C.2     1  UNL1        0.2127
     20 O           7.0034   41.5102   10.4591 O.2     1  UNL1       -0.2875
     21 C           9.2606   40.9943    9.9378 C.ar    1  UNL1        0.0383
     22 C           9.7822   39.7895    9.4413 C.ar    1  UNL1        0.0026
     23 C          11.0708   39.3774    9.7929 C.ar    1  UNL1       -0.0042
     24 C          11.8486   40.1668   10.6438 C.ar    1  UNL1       -0.0218
     25 C          13.2184   39.7287   11.0180 C.3     1  UNL1        0.0310
     26 C          11.3383   41.3679   11.1434 C.ar    1  UNL1       -0.0042
     27 C          10.0493   41.7796   10.7921 C.ar    1  UNL1        0.0026
@<TRIPOS>BOND
     1    18    17    1
     2    18    16    1
     3    18    19    1
     4     1    16    1
     5     2     3   ar
     6     4     5   ar
     7     5     9    1
     8     7    11    1
     9    11    15   ar
    10    12    13   ar
    11    14    15   ar
    12     6     1   ar
    13    19    21    1
    14    22    23   ar
    15    24    26   ar
    16    25    24    1
    17    27    21   ar
    18     9     7   am
    19     1     2   ar
    20     3     4   ar
    21     5     6   ar
    22     7     8    2
    23    11    12   ar
    24    13    14   ar
    25    19    20    2
    26    21    22   ar
    27    23    24   ar
    28    26    27   ar
    29     9    10    1
@<TRIPOS>MOLECULE
MolPort-001-579-848 CHEMBL1565019 CSSS00121683242 LN00895763 MCULE-8804048403 PubChem-3158579
 27 29 0 0 0
SMALL
GASTEIGER

@<TRIPOS>ATOM
      1 C           8.4453   41.0196    6.0139 C.ar    1  UNL1        0.1403
      2 C           8.5802   39.6295    6.1582 C.ar    1  UNL1        0.0370
      3 C           9.8480   39.0440    6.1748 C.ar    1  UNL1        0.0044
      4 C          10.9867   39.8432    6.0476 C.ar    1  UNL1        0.0149
      5 C          10.8654   41.2334    5.9030 C.ar    1  UNL1        0.0537
      6 C           9.5913   41.8114    5.8875 C.ar    1  UNL1        0.0516
      7 C          12.8256   42.6021    6.8319 C.2     1  UNL1        0.2842
      8 O          12.5791   42.3193    8.0353 O.2     1  UNL1       -0.2665
      9 N          12.0108   42.0861    5.7704 N.am    1  UNL1       -0.2778
     10 H          12.2644   42.3443    4.8549 H       1  UNL1        0.1553
     11 C          13.9617   43.4704    6.5062 C.ar    1  UNL1        0.1988
     12 C          15.2488   43.3190    6.9779 C.ar    1  UNL1        0.0455
     13 C          15.9593   44.3600    6.4060 C.ar    1  UNL1        0.0440
     14 C          15.0618   45.0717    5.6282 C.ar    1  UNL1        0.1798
     15 O          13.8806   44.5092    5.7146 O.2     1  UNL1       -0.4458
     16 O           7.1906   41.6352    5.9903 O.3     1  UNL1       -0.4713
     17 C           6.0975   40.6395    7.8915 C.3     1  UNL1        0.0559
     18 C           6.4574   41.9265    7.1737 C.3     1  UNL1        0.2267
     19 C           7.2517   42.8329    8.0624 C.2     1  UNL1        0.2127
     20 O           7.5094   44.0065    7.6775 O.2     1  UNL1       -0.2875
     21 C           7.7157   42.3715    9.3853 C.ar    1  UNL1        0.0383
     22 C           6.7962   42.0802   10.4050 C.ar    1  UNL1        0.0026
     23 C           7.2412   41.6478   11.6577 C.ar    1  UNL1       -0.0042
     24 C           8.6094   41.5031   11.9010 C.ar    1  UNL1       -0.0218
     25 C           9.0826   41.0438   13.2327 C.3     1  UNL1        0.0310
     26 C           9.5328   41.7907   10.8923 C.ar    1  UNL1       -0.0042
     27 C           9.0876   42.2235    9.6398 C.ar    1  UNL1        0.0026
@<TRIPOS>BOND
     1    18    17    1
     2    18    16    1
     3    18    19    1
     4     1    16    1
     5     2     3   ar
     6     4     5   ar
     7     5     9    1
     8     7    11    1
     9    11    15   ar
    10    12    13   ar
    11    14    15   ar
    12     6     1   ar
    13    19    21    1
    14    22    23   ar
    15    24    26   ar
    16    25    24    1
    17    27    21   ar
    18     9     7   am
    19     1     2   ar
    20     3     4   ar
    21     5     6   ar
    22     7     8    2
    23    11    12   ar
    24    13    14   ar
    25    19    20    2
    26    21    22   ar
    27    23    24   ar
    28    26    27   ar
    29     9    10    1
@<TRIPOS>MOLECULE
MolPort-001-579-848 CHEMBL1565019 CSSS00121683242 LN00895763 MCULE-8804048403 PubChem-3158579
 27 29 0 0 0
SMALL
GASTEIGER

@<TRIPOS>ATOM
      1 C           8.7244   40.7007    6.9652 C.ar    1  UNL1        0.1403
      2 C           8.5815   39.6887    6.0026 C.ar    1  UNL1        0.0370
      3 C           9.5090   39.5688    4.9654 C.ar    1  UNL1        0.0044
      4 C          10.5829   40.4585    4.8842 C.ar    1  UNL1        0.0149
      5 C          10.7370   41.4740    5.8398 C.ar    1  UNL1        0.0537
      6 C           9.8031   41.5864    6.8757 C.ar    1  UNL1        0.0516
      7 C          13.0899   42.2864    6.4582 C.2     1  UNL1        0.2842
      8 O          13.3508   41.2864    7.1799 O.2     1  UNL1       -0.2665
      9 N          11.8265   42.4051    5.7899 N.am    1  UNL1       -0.2778
     10 H          11.6932   43.2102    5.2392 H       1  UNL1        0.1553
     11 C          14.0896   43.3469    6.2949 C.ar    1  UNL1        0.1988
     12 C          15.3809   43.3140    6.7783 C.ar    1  UNL1        0.0455
     13 C          15.9365   44.5187    6.3835 C.ar    1  UNL1        0.0440
     14 C          14.9514   45.2006    5.6896 C.ar    1  UNL1        0.1798
     15 O          13.8644   44.4681    5.6589 O.2     1  UNL1       -0.4458
     16 O           7.8115   40.8488    8.0134 O.3     1  UNL1       -0.4713
     17 C           9.4385   41.9972    9.3678 C.3     1  UNL1        0.0559
     18 C           8.2170   41.0978    9.3536 C.3     1  UNL1        0.2267
     19 C           7.0908   41.7096   10.1279 C.2     1  UNL1        0.2127
     20 O           6.9777   41.4574   11.3589 O.2     1  UNL1       -0.2875
     21 C           6.1296   42.6151    9.4687 C.ar    1  UNL1        0.0383
     22 C           6.5794   43.6820    8.6754 C.ar    1  UNL1        0.0026
     23 C           5.6649   44.5394    8.0570 C.ar    1  UNL1       -0.0042
     24 C           4.2929   44.3370    8.2266 C.ar    1  UNL1       -0.0218
     25 C           3.3205   45.2485    7.5695 C.3     1  UNL1        0.0310
     26 C           3.8351   43.2776    9.0146 C.ar    1  UNL1       -0.0042
     27 C           4.7499   42.4205    9.6334 C.ar    1  UNL1        0.0026
@<TRIPOS>BOND
     1    18    17    1
     2    18    16    1
     3    18    19    1
     4     1    16    1
     5     2     3   ar
     6     4     5   ar
     7     5     9    1
     8     7    11    1
     9    11    15   ar
    10    12    13   ar
    11    14    15   ar
    12     6     1   ar
    13    19    21    1
    14    22    23   ar
    15    24    26   ar
    16    25    24    1
    17    27    21   ar
    18     9     7   am
    19     1     2   ar
    20     3     4   ar
    21     5     6   ar
    22     7     8    2
    23    11    12   ar
    24    13    14   ar
    25    19    20    2
    26    21    22   ar
    27    23    24   ar
    28    26    27   ar
    29     9    10    1
@<TRIPOS>MOLECULE
MolPort-001-579-848 CHEMBL1565019 CSSS00121683242 LN00895763 MCULE-8804048403 PubChem-3158579
 27 29 0 0 0
SMALL
GASTEIGER

@<TRIPOS>ATOM
      1 C          11.0948   39.7553    7.7677 C.ar    1  UNL1        0.1403
      2 C          10.7865   39.5635    9.1239 C.ar    1  UNL1        0.0370
      3 C          11.6692   39.9998   10.1142 C.ar    1  UNL1        0.0044
      4 C          12.8635   40.6295    9.7554 C.ar    1  UNL1        0.0149
      5 C          13.1831   40.8274    8.4037 C.ar    1  UNL1        0.0537
      6 C          12.2927   40.3871    7.4183 C.ar    1  UNL1        0.0516
      7 C          14.5225   42.7435    7.3486 C.2     1  UNL1        0.2842
      8 O          13.5042   43.4354    7.0779 O.2     1  UNL1       -0.2665
      9 N          14.3988   41.4701    7.9969 N.am    1  UNL1       -0.2778
     10 H          15.2362   40.9867    8.1819 H       1  UNL1        0.1553
     11 C          15.8562   43.2432    6.9988 C.ar    1  UNL1        0.1988
     12 C          16.9261   43.3479    7.8628 C.ar    1  UNL1        0.0455
     13 C          17.9535   43.8632    7.0916 C.ar    1  UNL1        0.0440
     14 C          17.4428   44.0364    5.8164 C.ar    1  UNL1        0.1798
     15 O          16.1885   43.6551    5.8021 O.2     1  UNL1       -0.4458
     16 O          10.2338   39.3272    6.7531 O.3     1  UNL1       -0.4713
     17 C          10.1385   39.8830    4.4116 C.3     1  UNL1        0.0559
     18 C           9.6566   40.2213    5.8096 C.3     1  UNL1        0.2267
     19 C           8.1625   40.1630    5.8912 C.2     1  UNL1        0.2127
     20 O           7.5529   39.1836    5.3804 O.2     1  UNL1       -0.2875
     21 C           7.4048   41.2275    6.5775 C.ar    1  UNL1        0.0383
     22 C           6.7449   40.9693    7.7890 C.ar    1  UNL1        0.0026
     23 C           6.0248   41.9799    8.4327 C.ar    1  UNL1       -0.0042
     24 C           5.9587   43.2571    7.8701 C.ar    1  UNL1       -0.0218
     25 C           5.1930   44.3314    8.5540 C.3     1  UNL1        0.0310
     26 C           6.6122   43.5242    6.6642 C.ar    1  UNL1       -0.0042
     27 C           7.3319   42.5132    6.0204 C.ar    1  UNL1        0.0026
@<TRIPOS>BOND
     1    18    17    1
     2    18    16    1
     3    18    19    1
     4     1    16    1
     5     2     3   ar
     6     4     5   ar
     7     5     9    1
     8     7    11    1
     9    11    15   ar
    10    12    13   ar
    11    14    15   ar
    12     6     1   ar
    13    19    21    1
    14    22    23   ar
    15    24    26   ar
    16    25    24    1
    17    27    21   ar
    18     9     7   am
    19     1     2   ar
    20     3     4   ar
    21     5     6   ar
    22     7     8    2
    23    11    12   ar
    24    13    14   ar
    25    19    20    2
    26    21    22   ar
    27    23    24   ar
    28    26    27   ar
    29     9    10    1
@<TRIPOS>MOLECULE
MolPort-001-579-848 CHEMBL1565019 CSSS00121683242 LN00895763 MCULE-8804048403 PubChem-3158579
 27 29 0 0 0
SMALL
GASTEIGER

@<TRIPOS>ATOM
      1 C          11.7626   38.2447    9.1118 C.ar    1  UNL1        0.1403
      2 C          11.0168   37.2506    9.7650 C.ar    1  UNL1        0.0370
      3 C          11.6655   36.2231   10.4534 C.ar    1  UNL1        0.0044
      4 C          13.0613   36.1833   10.4929 C.ar    1  UNL1        0.0149
      5 C          13.8181   37.1708    9.8444 C.ar    1  UNL1        0.0537
      6 C          13.1596   38.1966    9.1573 C.ar    1  UNL1        0.0516
      7 C          16.0995   37.5888   10.9395 C.2     1  UNL1        0.2842
      8 O          15.6110   38.0223   12.0177 O.2     1  UNL1       -0.2665
      9 N          15.2520   37.1636    9.8634 N.am    1  UNL1       -0.2778
     10 H          15.7018   36.8321    9.0528 H       1  UNL1        0.1553
     11 C          17.5552   37.5148   10.7776 C.ar    1  UNL1        0.1988
     12 C          18.3656   38.5361   10.3278 C.ar    1  UNL1        0.0455
     13 C          19.6438   38.0053   10.3430 C.ar    1  UNL1        0.0440
     14 C          19.5264   36.7032   10.7988 C.ar    1  UNL1        0.1798
     15 O          18.2645   36.4488   11.0471 O.2     1  UNL1       -0.4458
     16 O          11.1430   39.2841    8.4119 O.3     1  UNL1       -0.4713
     17 C          10.6259   39.3799    6.0616 C.3     1  UNL1        0.0559
     18 C          11.6139   39.7475    7.1525 C.3     1  UNL1        0.2267
     19 C          11.8370   41.2275    7.1982 C.2     1  UNL1        0.2127
     20 O          10.8421   42.0019    7.2451 O.2     1  UNL1       -0.2875
     21 C          13.2049   41.7818    7.2079 C.ar    1  UNL1        0.0383
     22 C          13.5694   42.8043    6.3182 C.ar    1  UNL1        0.0026
     23 C          14.8676   43.3226    6.3284 C.ar    1  UNL1       -0.0042
     24 C          15.8120   42.8228    7.2285 C.ar    1  UNL1       -0.0218
     25 C          17.1922   43.3734    7.2394 C.3     1  UNL1        0.0310
     26 C          15.4589   41.8047    8.1183 C.ar    1  UNL1       -0.0042
     27 C          14.1607   41.2862    8.1076 C.ar    1  UNL1        0.0026
@<TRIPOS>BOND
     1    18    17    1
     2    18    16    1
     3    18    19    1
     4     1    16    1
     5     2     3   ar
     6     4     5   ar
     7     5     9    1
     8     7    11    1
     9    11    15   ar
    10    12    13   ar
    11    14    15   ar
    12     6     1   ar
    13    19    21    1
    14    22    23   ar
    15    24    26   ar
    16    25    24    1
    17    27    21   ar
    18     9     7   am
    19     1     2   ar
    20     3     4   ar
    21     5     6   ar
    22     7     8    2
    23    11    12   ar
    24    13    14   ar
    25    19    20    2
    26    21    22   ar
    27    23    24   ar
    28    26    27   ar
    29     9    10    1
@<TRIPOS>MOLECULE
MolPort-001-579-848 CHEMBL1565019 CSSS00121683242 LN00895763 MCULE-8804048403 PubChem-3158579
 27 29 0 0 0
SMALL
GASTEIGER

@<TRIPOS>ATOM
      1 C          10.7712   40.4221    7.8723 C.ar    1  UNL1        0.1403
      2 C          10.0230   40.4595    6.6850 C.ar    1  UNL1        0.0370
      3 C          10.5743   41.0046    5.5233 C.ar    1  UNL1        0.0044
      4 C          11.8746   41.5147    5.5416 C.ar    1  UNL1        0.0149
      5 C          12.6327   41.4830    6.7217 C.ar    1  UNL1        0.0537
      6 C          12.0724   40.9349    7.8808 C.ar    1  UNL1        0.0516
      7 C          14.3968   43.3243    6.4454 C.2     1  UNL1        0.2842
      8 O          13.5697   44.1930    6.0577 O.2     1  UNL1       -0.2665
      9 N          13.9706   41.9962    6.7790 N.am    1  UNL1       -0.2778
     10 H          14.6698   41.3713    7.0789 H       1  UNL1        0.1553
     11 C          15.8171   43.6714    6.5598 C.ar    1  UNL1        0.1988
     12 C          16.6606   43.9581    5.5069 C.ar    1  UNL1        0.0455
     13 C          17.8847   44.2214    6.0968 C.ar    1  UNL1        0.0440
     14 C          17.7052   44.0784    7.4623 C.ar    1  UNL1        0.1798
     15 O          16.4580   43.7496    7.6979 O.2     1  UNL1       -0.4458
     16 O          10.2467   39.8861    9.0520 O.3     1  UNL1       -0.4713
     17 C          11.8013   38.0471    9.0975 C.3     1  UNL1        0.0559
     18 C          11.0030   39.0453    9.9145 C.3     1  UNL1        0.2267
     19 C          11.9024   39.8711   10.7812 C.2     1  UNL1        0.2127
     20 O          11.4064   40.7907   11.4884 O.2     1  UNL1       -0.2875
     21 C          13.3535   39.6055   10.8276 C.ar    1  UNL1        0.0383
     22 C          13.9006   38.7918   11.8318 C.ar    1  UNL1        0.0026
     23 C          15.2763   38.5471   11.8739 C.ar    1  UNL1       -0.0042
     24 C          16.1162   39.1140   10.9120 C.ar    1  UNL1       -0.0218
     25 C          17.5787   38.8543   10.9568 C.3     1  UNL1        0.0310
     26 C          15.5811   39.9257    9.9082 C.ar    1  UNL1       -0.0042
     27 C          14.2054   40.1707    9.8666 C.ar    1  UNL1        0.0026
@<TRIPOS>BOND
     1    18    17    1
     2    18    16    1
     3    18    19    1
     4     1    16    1
     5     2     3   ar
     6     4     5   ar
     7     5     9    1
     8     7    11    1
     9    11    15   ar
    10    12    13   ar
    11    14    15   ar
    12     6     1   ar
    13    19    21    1
    14    22    23   ar
    15    24    26   ar
    16    25    24    1
    17    27    21   ar
    18     9     7   am
    19     1     2   ar
    20     3     4   ar
    21     5     6   ar
    22     7     8    2
    23    11    12   ar
    24    13    14   ar
    25    19    20    2
    26    21    22   ar
    27    23    24   ar
    28    26    27   ar
    29     9    10    1
