@<TRIPOS>MOLECULE
MolPort-007-713-550 ChemDiv-E002-0461 MCULE-7672710718 PubChem-22509992 ZINC000006768189
 30 32 0 0 0
SMALL
GASTEIGER

@<TRIPOS>ATOM
      1 C          11.8353   41.0335    8.4523 C.2     1  UNL1        0.3096
      2 N          10.7592   40.1292    8.7206 N.am    1  UNL1       -0.2468
      3 N          13.1703   40.5166    8.3847 N.am    1  UNL1       -0.2679
      4 O          11.6097   42.2617    8.2788 O.2     1  UNL1       -0.2521
      5 H          10.9851   39.1795    8.8479 H       1  UNL1        0.1584
      6 H          13.2755   39.5485    8.5295 H       1  UNL1        0.1564
      7 C          14.3694   41.2607    8.1285 C.ar    1  UNL1        0.0548
      8 C          15.5300   41.0863    8.8936 C.ar    1  UNL1        0.0180
      9 C          16.6778   41.8295    8.6133 C.ar    1  UNL1        0.0413
     10 C          16.6836   42.7601    7.5620 C.ar    1  UNL1        0.1725
     11 C          15.5247   42.9401    6.7914 C.ar    1  UNL1        0.1736
     12 C          14.3749   42.1870    7.0821 C.ar    1  UNL1        0.0547
     13 C          14.6822   45.0038    5.7139 C.3     1  UNL1        0.2526
     14 O          15.5372   43.8692    5.7453 O.3     1  UNL1       -0.4683
     15 C          18.1771   43.8901    5.9424 C.3     1  UNL1        0.2526
     16 O          17.8249   43.5137    7.2668 O.3     1  UNL1       -0.4684
     17 C           7.2004   41.3169    9.3873 C.ar    1  UNL1        0.1905
     18 C           9.3803   40.4984    8.8181 C.ar    1  UNL1        0.1904
     19 N           7.2319   40.6498    8.2099 N.ar    1  UNL1       -0.1239
     20 N           8.4415   40.1892    7.8967 N.ar    1  UNL1       -0.1240
     21 S           8.7358   41.3846   10.0933 S.2     1  UNL1       -0.0151
     22 N           6.0131   41.9550    9.8965 N.pl3   1  UNL1       -0.2659
     23 C           5.3317   43.0099    9.1861 C.ar    1  UNL1        0.0531
     24 C           6.0637   43.9658    8.4616 C.ar    1  UNL1        0.0149
     25 C           5.4085   44.9734    7.7481 C.ar    1  UNL1        0.0013
     26 C           4.0131   45.0318    7.7436 C.ar    1  UNL1        0.0001
     27 C           3.2728   44.0807    8.4493 C.ar    1  UNL1        0.0013
     28 C           3.9286   43.0733    9.1624 C.ar    1  UNL1        0.0149
     29 C           5.4812   41.5005   11.1788 C.3     1  UNL1        0.0975
     30 C           4.0864   42.0590   11.3939 C.3     1  UNL1        0.0236
@<TRIPOS>BOND
     1    17    22    1
     2    17    21   ar
     3    29    22    1
     4    29    30    1
     5    24    25   ar
     6    26    27   ar
     7    28    23   ar
     8    18     2    1
     9    18    21   ar
    10     1     3   am
    11     8     9   ar
    12    10    11   ar
    13    10    16    1
    14    11    14    1
    15    13    14    1
    16    12     7   ar
    17    15    16    1
    18    22    23    1
    19    19    20   ar
    20     2     1   am
    21     3     7    1
    22    17    19   ar
    23    23    24   ar
    24    25    26   ar
    25    27    28   ar
    26    18    20   ar
    27     1     4    2
    28     7     8   ar
    29     9    10   ar
    30    11    12   ar
    31     2     5    1
    32     3     6    1
@<TRIPOS>MOLECULE
MolPort-007-713-550 ChemDiv-E002-0461 MCULE-7672710718 PubChem-22509992 ZINC000006768189
 30 32 0 0 0
SMALL
GASTEIGER

@<TRIPOS>ATOM
      1 C          10.1619   41.7722    7.8184 C.2     1  UNL1        0.3096
      2 N          11.1598   41.9521    6.8087 N.am    1  UNL1       -0.2468
      3 N           8.7841   41.7253    7.4262 N.am    1  UNL1       -0.2679
      4 O          10.4918   41.6572    9.0297 O.2     1  UNL1       -0.2521
      5 H          10.8531   42.0361    5.8770 H       1  UNL1        0.1584
      6 H           8.5967   41.8213    6.4645 H       1  UNL1        0.1564
      7 C           7.6497   41.5532    8.2867 C.ar    1  UNL1        0.0548
      8 C           6.3795   41.2367    7.7874 C.ar    1  UNL1        0.0180
      9 C           5.2995   41.0771    8.6572 C.ar    1  UNL1        0.0413
     10 C           5.4726   41.2314   10.0420 C.ar    1  UNL1        0.1725
     11 C           6.7420   41.5484   10.5492 C.ar    1  UNL1        0.1736
     12 C           7.8221   41.7068    9.6650 C.ar    1  UNL1        0.0547
     13 C           8.1423   41.4541   12.5888 C.3     1  UNL1        0.2526
     14 O           6.9075   41.7009   11.9301 O.3     1  UNL1       -0.4683
     15 C           3.6291   42.1698   11.4027 C.3     1  UNL1        0.2526
     16 O           4.4015   41.0752   10.9286 O.3     1  UNL1       -0.4684
     17 C          14.8311   41.8662    7.8259 C.ar    1  UNL1        0.1905
     18 C          12.5687   42.0194    7.0484 C.ar    1  UNL1        0.1904
     19 N          14.7022   42.5936    6.6916 N.ar    1  UNL1       -0.1239
     20 N          13.4445   42.6845    6.2632 N.ar    1  UNL1       -0.1240
     21 S          13.3362   41.2650    8.3402 S.2     1  UNL1       -0.0151
     22 N          16.1051   41.5829    8.4362 N.pl3   1  UNL1       -0.2659
     23 C          16.2734   40.5711    9.4510 C.ar    1  UNL1        0.0531
     24 C          15.1527   39.9408   10.0179 C.ar    1  UNL1        0.0149
     25 C          15.3098   38.9400   10.9807 C.ar    1  UNL1        0.0013
     26 C          16.5899   38.5514   11.3819 C.ar    1  UNL1        0.0001
     27 C          17.7128   39.1607   10.8176 C.ar    1  UNL1        0.0013
     28 C          17.5550   40.1614    9.8547 C.ar    1  UNL1        0.0149
     29 C          17.2676   42.3495    7.9947 C.3     1  UNL1        0.0975
     30 C          17.3651   43.6476    8.7752 C.3     1  UNL1        0.0236
@<TRIPOS>BOND
     1    17    22    1
     2    17    21   ar
     3    29    22    1
     4    29    30    1
     5    24    25   ar
     6    26    27   ar
     7    28    23   ar
     8    18     2    1
     9    18    21   ar
    10     1     3   am
    11     8     9   ar
    12    10    11   ar
    13    10    16    1
    14    11    14    1
    15    13    14    1
    16    12     7   ar
    17    15    16    1
    18    22    23    1
    19    19    20   ar
    20     2     1   am
    21     3     7    1
    22    17    19   ar
    23    23    24   ar
    24    25    26   ar
    25    27    28   ar
    26    18    20   ar
    27     1     4    2
    28     7     8   ar
    29     9    10   ar
    30    11    12   ar
    31     2     5    1
    32     3     6    1
@<TRIPOS>MOLECULE
MolPort-007-713-550 ChemDiv-E002-0461 MCULE-7672710718 PubChem-22509992 ZINC000006768189
 30 32 0 0 0
SMALL
GASTEIGER

@<TRIPOS>ATOM
      1 C           8.6951   41.7010    7.9067 C.2     1  UNL1        0.3096
      2 N           9.8271   41.8087    7.0379 N.am    1  UNL1       -0.2468
      3 N           7.4322   42.2117    7.4610 N.am    1  UNL1       -0.2679
      4 O           8.8098   41.1661    9.0424 O.2     1  UNL1       -0.2521
      5 H           9.6875   42.2333    6.1607 H       1  UNL1        0.1584
      6 H           7.4129   42.6164    6.5637 H       1  UNL1        0.1564
      7 C           6.1937   42.1953    8.1840 C.ar    1  UNL1        0.0548
      8 C           5.7714   41.0735    8.9092 C.ar    1  UNL1        0.0180
      9 C           4.5590   41.0960    9.6005 C.ar    1  UNL1        0.0413
     10 C           3.7484   42.2422    9.5779 C.ar    1  UNL1        0.1725
     11 C           4.1650   43.3696    8.8536 C.ar    1  UNL1        0.1736
     12 C           5.3870   43.3362    8.1613 C.ar    1  UNL1        0.0547
     13 C           3.2317   45.3489    7.6955 C.3     1  UNL1        0.2526
     14 O           3.3524   44.5084    8.8350 O.3     1  UNL1       -0.4683
     15 C           2.4449   42.2468   11.6829 C.3     1  UNL1        0.2526
     16 O           2.5302   42.2826   10.2648 O.3     1  UNL1       -0.4684
     17 C          13.4352   41.0225    7.9777 C.ar    1  UNL1        0.1905
     18 C          11.1459   41.3470    7.3454 C.ar    1  UNL1        0.1904
     19 N          12.8275   39.8863    7.5629 N.ar    1  UNL1       -0.1239
     20 N          11.5576   40.0676    7.2053 N.ar    1  UNL1       -0.1240
     21 S          12.3695   42.3353    7.9397 S.2     1  UNL1       -0.0151
     22 N          14.7889   41.0538    8.4702 N.pl3   1  UNL1       -0.2659
     23 C          15.7401   42.0610    8.0667 C.ar    1  UNL1        0.0531
     24 C          16.9920   42.1490    8.6987 C.ar    1  UNL1        0.0149
     25 C          17.9287   43.1039    8.2935 C.ar    1  UNL1        0.0013
     26 C          17.6278   43.9766    7.2455 C.ar    1  UNL1        0.0001
     27 C          16.3921   43.8920    6.6001 C.ar    1  UNL1        0.0013
     28 C          15.4560   42.9367    7.0058 C.ar    1  UNL1        0.0149
     29 C          15.2006   40.0263    9.4234 C.3     1  UNL1        0.0975
     30 C          14.1673   39.8929   10.5271 C.3     1  UNL1        0.0236
@<TRIPOS>BOND
     1    17    22    1
     2    17    21   ar
     3    29    22    1
     4    29    30    1
     5    24    25   ar
     6    26    27   ar
     7    28    23   ar
     8    18     2    1
     9    18    21   ar
    10     1     3   am
    11     8     9   ar
    12    10    11   ar
    13    10    16    1
    14    11    14    1
    15    13    14    1
    16    12     7   ar
    17    15    16    1
    18    22    23    1
    19    19    20   ar
    20     2     1   am
    21     3     7    1
    22    17    19   ar
    23    23    24   ar
    24    25    26   ar
    25    27    28   ar
    26    18    20   ar
    27     1     4    2
    28     7     8   ar
    29     9    10   ar
    30    11    12   ar
    31     2     5    1
    32     3     6    1
@<TRIPOS>MOLECULE
MolPort-007-713-550 ChemDiv-E002-0461 MCULE-7672710718 PubChem-22509992 ZINC000006768189
 30 32 0 0 0
SMALL
GASTEIGER

@<TRIPOS>ATOM
      1 C          11.1543   40.9086    7.8443 C.2     1  UNL1        0.3096
      2 N           9.9931   40.0876    7.6859 N.am    1  UNL1       -0.2468
      3 N          12.4482   40.3073    7.7084 N.am    1  UNL1       -0.2679
      4 O          11.0380   42.1379    8.0984 O.2     1  UNL1       -0.2521
      5 H          10.1349   39.1338    7.4873 H       1  UNL1        0.1584
      6 H          12.4670   39.3433    7.5095 H       1  UNL1        0.1564
      7 C          13.7185   40.9617    7.8314 C.ar    1  UNL1        0.0548
      8 C          14.6340   40.6241    8.8368 C.ar    1  UNL1        0.0180
      9 C          15.8609   41.2841    8.9240 C.ar    1  UNL1        0.0413
     10 C          16.1926   42.2932    8.0059 C.ar    1  UNL1        0.1725
     11 C          15.2806   42.6366    6.9962 C.ar    1  UNL1        0.1736
     12 C          14.0485   41.9661    6.9175 C.ar    1  UNL1        0.0547
     13 C          14.7288   44.0910    5.0701 C.3     1  UNL1        0.2526
     14 O          15.6173   43.6433    6.0847 O.3     1  UNL1       -0.4683
     15 C          17.6746   43.9978    9.0202 C.3     1  UNL1        0.2526
     16 O          17.4177   42.9652    8.0781 O.3     1  UNL1       -0.4684
     17 C           6.5392   41.5568    8.3436 C.ar    1  UNL1        0.1905
     18 C           8.6418   40.5454    7.7939 C.ar    1  UNL1        0.1904
     19 N           6.4753   40.7386    7.2672 N.ar    1  UNL1       -0.1239
     20 N           7.6419   40.1714    6.9656 N.ar    1  UNL1       -0.1240
     21 S           8.1107   41.6289    8.9648 S.2     1  UNL1       -0.0151
     22 N           5.4142   42.3243    8.8141 N.pl3   1  UNL1       -0.2659
     23 C           4.5892   41.8978    9.9183 C.ar    1  UNL1        0.0531
     24 C           4.9447   40.7687   10.6756 C.ar    1  UNL1        0.0149
     25 C           4.1651   40.3670   11.7639 C.ar    1  UNL1        0.0013
     26 C           3.0255   41.0949   12.1133 C.ar    1  UNL1        0.0001
     27 C           2.6675   42.2264   11.3770 C.ar    1  UNL1        0.0013
     28 C           3.4476   42.6276   10.2889 C.ar    1  UNL1        0.0149
     29 C           5.1128   43.5878    8.1459 C.3     1  UNL1        0.0975
     30 C           6.2400   44.5794    8.3693 C.3     1  UNL1        0.0236
@<TRIPOS>BOND
     1    17    22    1
     2    17    21   ar
     3    29    22    1
     4    29    30    1
     5    24    25   ar
     6    26    27   ar
     7    28    23   ar
     8    18     2    1
     9    18    21   ar
    10     1     3   am
    11     8     9   ar
    12    10    11   ar
    13    10    16    1
    14    11    14    1
    15    13    14    1
    16    12     7   ar
    17    15    16    1
    18    22    23    1
    19    19    20   ar
    20     2     1   am
    21     3     7    1
    22    17    19   ar
    23    23    24   ar
    24    25    26   ar
    25    27    28   ar
    26    18    20   ar
    27     1     4    2
    28     7     8   ar
    29     9    10   ar
    30    11    12   ar
    31     2     5    1
    32     3     6    1
@<TRIPOS>MOLECULE
MolPort-007-713-550 ChemDiv-E002-0461 MCULE-7672710718 PubChem-22509992 ZINC000006768189
 30 32 0 0 0
SMALL
GASTEIGER

@<TRIPOS>ATOM
      1 C          11.6380   41.4794    7.5088 C.2     1  UNL1        0.3096
      2 N          10.6552   41.8246    6.5277 N.am    1  UNL1       -0.2468
      3 N          13.0159   41.4299    7.1174 N.am    1  UNL1       -0.2679
      4 O          11.2950   41.2244    8.6948 O.2     1  UNL1       -0.2521
      5 H          10.9719   42.0162    5.6155 H       1  UNL1        0.1584
      6 H          13.2140   41.6403    6.1763 H       1  UNL1        0.1564
      7 C          14.1365   41.1061    7.9519 C.ar    1  UNL1        0.0548
      8 C          14.1153   40.0193    8.8357 C.ar    1  UNL1        0.0180
      9 C          15.2262   39.7360    9.6320 C.ar    1  UNL1        0.0413
     10 C          16.3777   40.5359    9.5570 C.ar    1  UNL1        0.1725
     11 C          16.4061   41.6262    8.6740 C.ar    1  UNL1        0.1736
     12 C          15.2825   41.9024    7.8772 C.ar    1  UNL1        0.0547
     13 C          17.5149   43.8394    8.6337 C.3     1  UNL1        0.2526
     14 O          17.5566   42.4193    8.6043 O.3     1  UNL1       -0.4683
     15 C          18.2957   39.1006   10.1831 C.3     1  UNL1        0.2526
     16 O          17.5004   40.2669   10.3475 O.3     1  UNL1       -0.4684
     17 C           7.0182   42.2991    7.5609 C.ar    1  UNL1        0.1905
     18 C           9.2478   41.9129    6.7699 C.ar    1  UNL1        0.1904
     19 N           7.0623   41.6051    6.3995 N.ar    1  UNL1       -0.1239
     20 N           8.3010   41.3847    5.9633 N.ar    1  UNL1       -0.1240
     21 S           8.5725   42.7022    8.0920 S.2     1  UNL1       -0.0151
     22 N           5.7854   42.7056    8.1861 N.pl3   1  UNL1       -0.2659
     23 C           5.1798   41.9645    9.2660 C.ar    1  UNL1        0.0531
     24 C           3.9414   41.3264    9.0822 C.ar    1  UNL1        0.0149
     25 C           3.3631   40.5834   10.1152 C.ar    1  UNL1        0.0013
     26 C           4.0205   40.4626   11.3414 C.ar    1  UNL1        0.0001
     27 C           5.2578   41.0813   11.5336 C.ar    1  UNL1        0.0013
     28 C           5.8356   41.8239   10.5002 C.ar    1  UNL1        0.0149
     29 C           5.1371   43.9236    7.7066 C.3     1  UNL1        0.0975
     30 C           3.9566   44.2721    8.5947 C.3     1  UNL1        0.0236
@<TRIPOS>BOND
     1    17    22    1
     2    17    21   ar
     3    29    22    1
     4    29    30    1
     5    24    25   ar
     6    26    27   ar
     7    28    23   ar
     8    18     2    1
     9    18    21   ar
    10     1     3   am
    11     8     9   ar
    12    10    11   ar
    13    10    16    1
    14    11    14    1
    15    13    14    1
    16    12     7   ar
    17    15    16    1
    18    22    23    1
    19    19    20   ar
    20     2     1   am
    21     3     7    1
    22    17    19   ar
    23    23    24   ar
    24    25    26   ar
    25    27    28   ar
    26    18    20   ar
    27     1     4    2
    28     7     8   ar
    29     9    10   ar
    30    11    12   ar
    31     2     5    1
    32     3     6    1
@<TRIPOS>MOLECULE
MolPort-007-713-550 ChemDiv-E002-0461 MCULE-7672710718 PubChem-22509992 ZINC000006768189
 30 32 0 0 0
SMALL
GASTEIGER

@<TRIPOS>ATOM
      1 C          13.4476   39.6305    9.5958 C.2     1  UNL1        0.3096
      2 N          13.0404   41.0022    9.5744 N.am    1  UNL1       -0.2468
      3 N          14.7929   39.3042    9.2243 N.am    1  UNL1       -0.2679
      4 O          12.6357   38.7281    9.9360 O.2     1  UNL1       -0.2521
      5 H          13.7103   41.6705    9.3028 H       1  UNL1        0.1584
      6 H          15.3742   40.0569    8.9697 H       1  UNL1        0.1564
      7 C          15.3816   37.9970    9.1841 C.ar    1  UNL1        0.0548
      8 C          14.7871   36.9353    8.4898 C.ar    1  UNL1        0.0180
      9 C          15.3909   35.6769    8.4740 C.ar    1  UNL1        0.0413
     10 C          16.6006   35.4598    9.1529 C.ar    1  UNL1        0.1725
     11 C          17.2018   36.5186    9.8504 C.ar    1  UNL1        0.1736
     12 C          16.5856   37.7811    9.8599 C.ar    1  UNL1        0.0547
     13 C          19.5578   37.1069   10.3331 C.3     1  UNL1        0.2526
     14 O          18.4071   36.2954   10.5250 O.3     1  UNL1       -0.4683
     15 C          16.9570   33.2211    8.1569 C.3     1  UNL1        0.2526
     16 O          17.2199   34.2052    9.1479 O.3     1  UNL1       -0.4684
     17 C           9.4941   41.8473   10.6830 C.ar    1  UNL1        0.1905
     18 C          11.7352   41.4775    9.9171 C.ar    1  UNL1        0.1904
     19 N          10.0265   42.9170   10.0470 N.ar    1  UNL1       -0.1239
     20 N          11.2692   42.7095    9.6155 N.ar    1  UNL1       -0.1240
     21 S          10.5985   40.5686   10.7591 S.2     1  UNL1       -0.0151
     22 N           8.1861   41.8643   11.2873 N.pl3   1  UNL1       -0.2659
     23 C           6.9832   41.5725   10.5459 C.ar    1  UNL1        0.0531
     24 C           5.7662   41.3701   11.2185 C.ar    1  UNL1        0.0149
     25 C           4.5919   41.1152   10.5047 C.ar    1  UNL1        0.0013
     26 C           4.6191   41.0682    9.1091 C.ar    1  UNL1        0.0001
     27 C           5.8195   41.2800    8.4272 C.ar    1  UNL1        0.0013
     28 C           6.9933   41.5350    9.1417 C.ar    1  UNL1        0.0149
     29 C           8.0871   42.1805   12.7099 C.3     1  UNL1        0.0975
     30 C           8.8825   41.1772   13.5252 C.3     1  UNL1        0.0236
@<TRIPOS>BOND
     1    17    22    1
     2    17    21   ar
     3    29    22    1
     4    29    30    1
     5    24    25   ar
     6    26    27   ar
     7    28    23   ar
     8    18     2    1
     9    18    21   ar
    10     1     3   am
    11     8     9   ar
    12    10    11   ar
    13    10    16    1
    14    11    14    1
    15    13    14    1
    16    12     7   ar
    17    15    16    1
    18    22    23    1
    19    19    20   ar
    20     2     1   am
    21     3     7    1
    22    17    19   ar
    23    23    24   ar
    24    25    26   ar
    25    27    28   ar
    26    18    20   ar
    27     1     4    2
    28     7     8   ar
    29     9    10   ar
    30    11    12   ar
    31     2     5    1
    32     3     6    1
@<TRIPOS>MOLECULE
MolPort-007-713-550 ChemDiv-E002-0461 MCULE-7672710718 PubChem-22509992 ZINC000006768189
 30 32 0 0 0
SMALL
GASTEIGER

@<TRIPOS>ATOM
      1 C          11.5029   41.1850    9.2893 C.2     1  UNL1        0.3096
      2 N          10.3490   40.4068    9.6219 N.am    1  UNL1       -0.2468
      3 N          12.6898   40.5085    8.8557 N.am    1  UNL1       -0.2679
      4 O          11.4728   42.4422    9.3770 O.2     1  UNL1       -0.2521
      5 H          10.4210   39.4286    9.5366 H       1  UNL1        0.1584
      6 H          12.6447   39.5261    8.8096 H       1  UNL1        0.1564
      7 C          13.9362   41.1116    8.4817 C.ar    1  UNL1        0.0548
      8 C          14.0119   42.1230    7.5152 C.ar    1  UNL1        0.0180
      9 C          15.2441   42.6856    7.1781 C.ar    1  UNL1        0.0413
     10 C          16.4218   42.2454    7.8030 C.ar    1  UNL1        0.1725
     11 C          16.3536   41.2327    8.7720 C.ar    1  UNL1        0.1736
     12 C          15.1083   40.6733    9.1037 C.ar    1  UNL1        0.0547
     13 C          17.5615   39.7203   10.3158 C.3     1  UNL1        0.2526
     14 O          17.5310   40.7986    9.3907 O.3     1  UNL1       -0.4683
     15 C          17.8331   43.7632    6.4483 C.3     1  UNL1        0.2526
     16 O          17.6654   42.7978    7.4777 O.3     1  UNL1       -0.4684
     17 C           6.8821   41.8032   10.3637 C.ar    1  UNL1        0.1905
     18 C           9.0989   40.9402   10.0687 C.ar    1  UNL1        0.1904
     19 N           7.5869   41.7306   11.5171 N.ar    1  UNL1       -0.1239
     20 N           8.8208   41.2575   11.3524 N.ar    1  UNL1       -0.1240
     21 S           7.7904   41.2353    9.0549 S.2     1  UNL1       -0.0151
     22 N           5.5058   42.2263   10.3101 N.pl3   1  UNL1       -0.2659
     23 C           5.0225   43.1797    9.3409 C.ar    1  UNL1        0.0531
     24 C           3.6439   43.4134    9.2012 C.ar    1  UNL1        0.0149
     25 C           3.1709   44.3561    8.2842 C.ar    1  UNL1        0.0013
     26 C           4.0713   45.0826    7.5019 C.ar    1  UNL1        0.0001
     27 C           5.4448   44.8694    7.6394 C.ar    1  UNL1        0.0013
     28 C           5.9171   43.9267    8.5567 C.ar    1  UNL1        0.0149
     29 C           4.5694   41.6528   11.2734 C.3     1  UNL1        0.0975
     30 C           3.9252   40.4050   10.6974 C.3     1  UNL1        0.0236
@<TRIPOS>BOND
     1    17    22    1
     2    17    21   ar
     3    29    22    1
     4    29    30    1
     5    24    25   ar
     6    26    27   ar
     7    28    23   ar
     8    18     2    1
     9    18    21   ar
    10     1     3   am
    11     8     9   ar
    12    10    11   ar
    13    10    16    1
    14    11    14    1
    15    13    14    1
    16    12     7   ar
    17    15    16    1
    18    22    23    1
    19    19    20   ar
    20     2     1   am
    21     3     7    1
    22    17    19   ar
    23    23    24   ar
    24    25    26   ar
    25    27    28   ar
    26    18    20   ar
    27     1     4    2
    28     7     8   ar
    29     9    10   ar
    30    11    12   ar
    31     2     5    1
    32     3     6    1
@<TRIPOS>MOLECULE
MolPort-007-713-550 ChemDiv-E002-0461 MCULE-7672710718 PubChem-22509992 ZINC000006768189
 30 32 0 0 0
SMALL
GASTEIGER

@<TRIPOS>ATOM
      1 C           8.7644   41.1226    8.9004 C.2     1  UNL1        0.3096
      2 N           9.6392   40.0249    9.1785 N.am    1  UNL1       -0.2468
      3 N           7.3766   41.0014    9.2373 N.am    1  UNL1       -0.2679
      4 O           9.2094   42.1757    8.3690 O.2     1  UNL1       -0.2521
      5 H           9.2453   39.2245    9.5950 H       1  UNL1        0.1584
      6 H           7.0962   40.1526    9.6497 H       1  UNL1        0.1564
      7 C           6.3532   41.9861    9.0371 C.ar    1  UNL1        0.0548
      8 C           6.5685   43.1352    8.2650 C.ar    1  UNL1        0.0180
      9 C           5.5472   44.0711    8.0933 C.ar    1  UNL1        0.0413
     10 C           4.2926   43.8726    8.6914 C.ar    1  UNL1        0.1725
     11 C           4.0697   42.7240    9.4661 C.ar    1  UNL1        0.1736
     12 C           5.1045   41.7884    9.6325 C.ar    1  UNL1        0.0547
     13 C           2.6603   42.1553   11.4205 C.3     1  UNL1        0.2526
     14 O           2.8171   42.5324   10.0594 O.3     1  UNL1       -0.4683
     15 C           2.9951   45.4535    7.2957 C.3     1  UNL1        0.2526
     16 O           3.2574   44.8000    8.5301 O.3     1  UNL1       -0.4684
     17 C          13.4161   40.2987    8.7541 C.ar    1  UNL1        0.1905
     18 C          11.0420   40.0004    8.8982 C.ar    1  UNL1        0.1904
     19 N          12.9442   39.3433    7.9193 N.ar    1  UNL1       -0.1239
     20 N          11.6245   39.1820    7.9944 N.ar    1  UNL1       -0.1240
     21 S          12.1684   40.9826    9.6685 S.2     1  UNL1       -0.0151
     22 N          14.8184   40.6016    8.8877 N.pl3   1  UNL1       -0.2659
     23 C          15.4455   41.7021    8.1967 C.ar    1  UNL1        0.0531
     24 C          14.7451   42.4090    7.2044 C.ar    1  UNL1        0.0149
     25 C          15.3367   43.4939    6.5513 C.ar    1  UNL1        0.0013
     26 C          16.6327   43.8902    6.8888 C.ar    1  UNL1        0.0001
     27 C          17.3356   43.2044    7.8819 C.ar    1  UNL1        0.0013
     28 C          16.7433   42.1198    8.5347 C.ar    1  UNL1        0.0149
     29 C          15.6253   39.7608    9.7685 C.3     1  UNL1        0.0975
     30 C          14.8021   39.3133   10.9626 C.3     1  UNL1        0.0236
@<TRIPOS>BOND
     1    17    22    1
     2    17    21   ar
     3    29    22    1
     4    29    30    1
     5    24    25   ar
     6    26    27   ar
     7    28    23   ar
     8    18     2    1
     9    18    21   ar
    10     1     3   am
    11     8     9   ar
    12    10    11   ar
    13    10    16    1
    14    11    14    1
    15    13    14    1
    16    12     7   ar
    17    15    16    1
    18    22    23    1
    19    19    20   ar
    20     2     1   am
    21     3     7    1
    22    17    19   ar
    23    23    24   ar
    24    25    26   ar
    25    27    28   ar
    26    18    20   ar
    27     1     4    2
    28     7     8   ar
    29     9    10   ar
    30    11    12   ar
    31     2     5    1
    32     3     6    1
@<TRIPOS>MOLECULE
MolPort-007-713-550 ChemDiv-E002-0461 MCULE-7672710718 PubChem-22509992 ZINC000006768189
 30 32 0 0 0
SMALL
GASTEIGER

@<TRIPOS>ATOM
      1 C          11.9038   40.4235   10.4469 C.2     1  UNL1        0.3096
      2 N          11.1611   41.4579   11.0995 N.am    1  UNL1       -0.2468
      3 N          12.9798   39.7949   11.1551 N.am    1  UNL1       -0.2679
      4 O          11.6144   40.0735    9.2709 O.2     1  UNL1       -0.2521
      5 H          11.4239   41.6955   12.0180 H       1  UNL1        0.1584
      6 H          13.1519   40.1160   12.0697 H       1  UNL1        0.1564
      7 C          13.8323   38.7475   10.6720 C.ar    1  UNL1        0.0548
      8 C          13.3693   37.4381   10.4881 C.ar    1  UNL1        0.0180
      9 C          14.2299   36.4456   10.0159 C.ar    1  UNL1        0.0413
     10 C          15.5687   36.7471    9.7194 C.ar    1  UNL1        0.1725
     11 C          16.0394   38.0565    9.9013 C.ar    1  UNL1        0.1736
     12 C          15.1649   39.0477   10.3771 C.ar    1  UNL1        0.0547
     13 C          18.1455   39.2746   10.3595 C.3     1  UNL1        0.2526
     14 O          17.3747   38.3501    9.6042 O.3     1  UNL1       -0.4683
     15 C          16.0080   34.6413    8.4935 C.3     1  UNL1        0.2526
     16 O          16.4454   35.7652    9.2453 O.3     1  UNL1       -0.4684
     17 C           8.0537   42.9444    9.4700 C.ar    1  UNL1        0.1905
     18 C          10.0659   42.1738   10.5203 C.ar    1  UNL1        0.1904
     19 N           8.8689   43.9489    9.8686 N.ar    1  UNL1       -0.1239
     20 N           9.9899   43.5209   10.4462 N.ar    1  UNL1       -0.1240
     21 S           8.7079   41.4343    9.8601 S.2     1  UNL1       -0.0151
     22 N           6.7600   43.1715    8.8777 N.pl3   1  UNL1       -0.2659
     23 C           5.5554   42.5581    9.3821 C.ar    1  UNL1        0.0531
     24 C           4.2954   43.0581    9.0118 C.ar    1  UNL1        0.0149
     25 C           3.1245   42.4509    9.4741 C.ar    1  UNL1        0.0013
     26 C           3.1996   41.3312   10.3055 C.ar    1  UNL1        0.0001
     27 C           4.4453   40.8163   10.6713 C.ar    1  UNL1        0.0013
     28 C           5.6157   41.4238   10.2084 C.ar    1  UNL1        0.0149
     29 C           6.6752   44.0686    7.7279 C.3     1  UNL1        0.0975
     30 C           6.9721   43.3081    6.4484 C.3     1  UNL1        0.0236
@<TRIPOS>BOND
     1    17    22    1
     2    17    21   ar
     3    29    22    1
     4    29    30    1
     5    24    25   ar
     6    26    27   ar
     7    28    23   ar
     8    18     2    1
     9    18    21   ar
    10     1     3   am
    11     8     9   ar
    12    10    11   ar
    13    10    16    1
    14    11    14    1
    15    13    14    1
    16    12     7   ar
    17    15    16    1
    18    22    23    1
    19    19    20   ar
    20     2     1   am
    21     3     7    1
    22    17    19   ar
    23    23    24   ar
    24    25    26   ar
    25    27    28   ar
    26    18    20   ar
    27     1     4    2
    28     7     8   ar
    29     9    10   ar
    30    11    12   ar
    31     2     5    1
    32     3     6    1
@<TRIPOS>MOLECULE
MolPort-007-713-550 ChemDiv-E002-0461 MCULE-7672710718 PubChem-22509992 ZINC000006768189
 30 32 0 0 0
SMALL
GASTEIGER

@<TRIPOS>ATOM
      1 C          11.3812   40.2792   10.8914 C.2     1  UNL1        0.3096
      2 N          10.5776   41.3597   11.3755 N.am    1  UNL1       -0.2468
      3 N          12.7992   40.3293   11.0939 N.am    1  UNL1       -0.2679
      4 O          10.8486   39.3024   10.2984 O.2     1  UNL1       -0.2521
      5 H          11.0391   42.0993   11.8329 H       1  UNL1        0.1584
      6 H          13.1491   41.1202   11.5643 H       1  UNL1        0.1564
      7 C          13.7623   39.3489   10.6836 C.ar    1  UNL1        0.0548
      8 C          15.0790   39.6942   10.3519 C.ar    1  UNL1        0.0180
      9 C          15.9877   38.7110    9.9569 C.ar    1  UNL1        0.0413
     10 C          15.5940   37.3651    9.8874 C.ar    1  UNL1        0.1725
     11 C          14.2768   37.0119   10.2181 C.ar    1  UNL1        0.1736
     12 C          13.3703   38.0094   10.6144 C.ar    1  UNL1        0.0547
     13 C          12.5912   35.2217   10.5072 C.3     1  UNL1        0.2526
     14 O          13.8909   35.6689   10.1465 O.3     1  UNL1       -0.4683
     15 C          16.5357   35.8501    8.1702 C.3     1  UNL1        0.2526
     16 O          16.4912   36.3664    9.4935 O.3     1  UNL1       -0.4684
     17 C           6.8654   41.6724   10.5743 C.ar    1  UNL1        0.1905
     18 C           9.1555   41.4483   11.2463 C.ar    1  UNL1        0.1904
     19 N           7.0144   41.4280   11.8974 N.ar    1  UNL1       -0.1239
     20 N           8.2868   41.3102   12.2721 N.ar    1  UNL1       -0.1240
     21 S           8.3627   41.7250    9.7896 S.2     1  UNL1       -0.0151
     22 N           5.5782   41.7751    9.9352 N.pl3   1  UNL1       -0.2659
     23 C           5.2432   42.8470    9.0293 C.ar    1  UNL1        0.0531
     24 C           4.0885   43.6197    9.2398 C.ar    1  UNL1        0.0149
     25 C           3.7735   44.6775    8.3823 C.ar    1  UNL1        0.0013
     26 C           4.6142   44.9807    7.3090 C.ar    1  UNL1        0.0001
     27 C           5.7716   44.2288    7.0954 C.ar    1  UNL1        0.0013
     28 C           6.0861   43.1713    7.9533 C.ar    1  UNL1        0.0149
     29 C           4.5844   40.7417   10.2146 C.3     1  UNL1        0.0975
     30 C           3.2793   41.0674    9.5113 C.3     1  UNL1        0.0236
@<TRIPOS>BOND
     1    17    22    1
     2    17    21   ar
     3    29    22    1
     4    29    30    1
     5    24    25   ar
     6    26    27   ar
     7    28    23   ar
     8    18     2    1
     9    18    21   ar
    10     1     3   am
    11     8     9   ar
    12    10    11   ar
    13    10    16    1
    14    11    14    1
    15    13    14    1
    16    12     7   ar
    17    15    16    1
    18    22    23    1
    19    19    20   ar
    20     2     1   am
    21     3     7    1
    22    17    19   ar
    23    23    24   ar
    24    25    26   ar
    25    27    28   ar
    26    18    20   ar
    27     1     4    2
    28     7     8   ar
    29     9    10   ar
    30    11    12   ar
    31     2     5    1
    32     3     6    1
