@<TRIPOS>MOLECULE
MolPort-047-073-921 MCULE-9217073820 PubChem-132766369
 30 33 0 0 0
SMALL
GASTEIGER

@<TRIPOS>ATOM
      1 C          10.5421   41.0952   10.8590 C.ar    1  UNL1        0.1361
      2 C           9.3787   41.5659   10.2510 C.ar    1  UNL1        0.0492
      3 C           8.2766   41.8596   11.0534 C.ar    1  UNL1        0.0641
      4 C           9.4950   41.2242   12.9784 C.ar    1  UNL1        0.1406
      5 C           9.5594   41.0392   14.4513 C.3     1  UNL1        0.0737
      6 N           8.3546   41.6835   12.4008 N.ar    1  UNL1       -0.2349
      7 N          10.5769   40.9339   12.2099 N.ar    1  UNL1       -0.2159
      8 C           7.0212   42.3638   10.4221 C.3     1  UNL1        0.0564
      9 C           5.8082   41.6304   10.9781 C.3     1  UNL1        0.0087
     10 C           4.5505   42.1537   10.3048 C.3     1  UNL1        0.0178
     11 C           4.6676   41.9852    8.7870 C.3     1  UNL1        0.0731
     12 C           7.0825   42.2050    8.8976 C.3     1  UNL1        0.0789
     13 N           5.8526   42.6597    8.2334 N.3     1  UNL1       -0.2596
     14 C           5.7230   44.1081    8.3683 C.3     1  UNL1        0.1795
     15 C           4.3158   44.4970    8.2409 C.1     1  UNL1        0.0912
     16 N           3.2047   44.8044    8.1407 N.1     1  UNL1       -0.1944
     17 N          11.6805   40.7899   10.0466 N.pl3   1  UNL1       -0.2781
     18 H          12.3701   40.2052   10.4362 H       1  UNL1        0.1555
     19 C          12.8596   42.3831    7.0234 C.ar    1  UNL1        0.1451
     20 C          11.8228   41.7771    6.3070 C.ar    1  UNL1        0.0619
     21 C          11.8983   41.2651    8.7143 C.ar    1  UNL1        0.1648
     22 S          10.9407   40.8533    7.4065 S.2     1  UNL1       -0.0507
     23 N          12.8939   42.0998    8.3553 N.ar    1  UNL1       -0.2193
     24 C          13.8506   43.2922    6.4137 C.2     1  UNL1        0.2895
     25 C          16.2167   44.0065    5.9836 C.3     1  UNL1        0.1271
     26 C          17.3802   43.9308    6.9262 C.3     1  UNL1        0.0588
     27 C          16.8202   43.1168    8.0800 C.3     1  UNL1        0.1732
     28 N          15.2653   43.0856    6.5651 N.am    1  UNL1       -0.1634
     29 O          13.4357   44.2685    5.7311 O.2     1  UNL1       -0.2661
     30 O          15.7720   42.3317    7.5732 O.3     1  UNL1       -0.2627
@<TRIPOS>BOND
     1    19    24    1
     2    19    23   ar
     3    20    22   ar
     4    21    22   ar
     5    21    17    1
     6     1     7   ar
     7     2     3   ar
     8     8     3    1
     9     8     9    1
    10     9    10    1
    11    10    11    1
    12    11    13    1
    13    14    13    1
    14    14    15    1
    15    12    13    1
    16    12     8    1
    17     4     6   ar
    18     5     4    1
    19    24    28   am
    20    25    28    1
    21    25    26    1
    22    26    27    1
    23    27    30    1
    24    17     1    1
    25    28    30    1
    26    19    20   ar
    27    21    23   ar
    28     1     2   ar
    29     3     6   ar
    30     4     7   ar
    31    24    29    2
    32    15    16    3
    33    17    18    1
@<TRIPOS>MOLECULE
MolPort-047-073-921 MCULE-9217073820 PubChem-132766369
 30 33 0 0 0
SMALL
GASTEIGER

@<TRIPOS>ATOM
      1 C          16.5112   41.8693    8.4811 C.ar    1  UNL1        0.1361
      2 C          15.2160   41.3524    8.4695 C.ar    1  UNL1        0.0492
      3 C          14.2490   41.9888    7.6918 C.ar    1  UNL1        0.0641
      4 C          15.8484   43.5826    6.9877 C.ar    1  UNL1        0.1406
      5 C          16.1914   44.7870    6.1879 C.3     1  UNL1        0.0737
      6 N          14.5822   43.0910    6.9660 N.ar    1  UNL1       -0.2349
      7 N          16.8012   42.9735    7.7403 N.ar    1  UNL1       -0.2159
      8 C          12.8561   41.4520    7.6662 C.3     1  UNL1        0.0564
      9 C          12.3633   41.3050    6.2332 C.3     1  UNL1        0.0087
     10 C          10.9399   40.7734    6.2418 C.3     1  UNL1        0.0178
     11 C          10.0424   41.7102    7.0559 C.3     1  UNL1        0.0731
     12 C          11.9118   42.3643    8.4595 C.3     1  UNL1        0.0789
     13 N          10.5201   41.8921    8.4359 N.3     1  UNL1       -0.2596
     14 C          10.4084   40.6415    9.1819 C.3     1  UNL1        0.1795
     15 C          10.3385   40.9221   10.6186 C.1     1  UNL1        0.0912
     16 N          10.2834   41.1433   11.7531 N.1     1  UNL1       -0.1944
     17 N          17.5131   41.2254    9.2753 N.pl3   1  UNL1       -0.2781
     18 H          18.3500   41.7189    9.4341 H       1  UNL1        0.1555
     19 C          16.4211   38.0929   10.7117 C.ar    1  UNL1        0.1451
     20 C          17.7549   37.6914   10.8347 C.ar    1  UNL1        0.0619
     21 C          17.3978   39.9230    9.8572 C.ar    1  UNL1        0.1648
     22 S          18.7034   38.9477   10.2326 S.2     1  UNL1       -0.0507
     23 N          16.2297   39.3300   10.1744 N.ar    1  UNL1       -0.2193
     24 C          15.2766   37.2678   11.1470 C.2     1  UNL1        0.2895
     25 C          13.0673   36.1594   10.7181 C.3     1  UNL1        0.1271
     26 C          11.9336   36.6734    9.8824 C.3     1  UNL1        0.0588
     27 C          12.5476   37.8822    9.1975 C.3     1  UNL1        0.1732
     28 N          14.1922   36.9444   10.2602 N.am    1  UNL1       -0.1634
     29 O          15.2641   36.8270   12.3288 O.2     1  UNL1       -0.2661
     30 O          13.9363   37.6798    9.1488 O.3     1  UNL1       -0.2627
@<TRIPOS>BOND
     1    19    24    1
     2    19    23   ar
     3    20    22   ar
     4    21    22   ar
     5    21    17    1
     6     1     7   ar
     7     2     3   ar
     8     8     3    1
     9     8     9    1
    10     9    10    1
    11    10    11    1
    12    11    13    1
    13    14    13    1
    14    14    15    1
    15    12    13    1
    16    12     8    1
    17     4     6   ar
    18     5     4    1
    19    24    28   am
    20    25    28    1
    21    25    26    1
    22    26    27    1
    23    27    30    1
    24    17     1    1
    25    28    30    1
    26    19    20   ar
    27    21    23   ar
    28     1     2   ar
    29     3     6   ar
    30     4     7   ar
    31    24    29    2
    32    15    16    3
    33    17    18    1
@<TRIPOS>MOLECULE
MolPort-047-073-921 MCULE-9217073820 PubChem-132766369
 30 33 0 0 0
SMALL
GASTEIGER

@<TRIPOS>ATOM
      1 C          12.6805   41.8603    6.2108 C.ar    1  UNL1        0.1361
      2 C          13.1799   41.1418    7.2967 C.ar    1  UNL1        0.0492
      3 C          14.3611   41.5747    7.8987 C.ar    1  UNL1        0.0641
      4 C          14.4999   43.3676    6.3624 C.ar    1  UNL1        0.1406
      5 C          15.2116   44.5699    5.8567 C.3     1  UNL1        0.0737
      6 N          14.9989   42.6782    7.4212 N.ar    1  UNL1       -0.2349
      7 N          13.3502   42.9583    5.7657 N.ar    1  UNL1       -0.2159
      8 C          14.9131   40.8191    9.0620 C.3     1  UNL1        0.0564
      9 C          16.4354   40.8278    9.0347 C.3     1  UNL1        0.0087
     10 C          16.9652   40.0381   10.2199 C.3     1  UNL1        0.0178
     11 C          16.4063   38.6126   10.1835 C.3     1  UNL1        0.0731
     12 C          14.3923   39.3762    9.0642 C.3     1  UNL1        0.0789
     13 N          14.9350   38.5826   10.1760 N.3     1  UNL1       -0.2596
     14 C          14.4096   39.0817   11.4439 C.3     1  UNL1        0.1795
     15 C          13.0647   39.6292   11.2458 C.1     1  UNL1        0.0912
     16 N          12.0028   40.0616   11.0897 N.1     1  UNL1       -0.1944
     17 N          11.4690   41.4264    5.5839 N.pl3   1  UNL1       -0.2781
     18 H          11.5021   41.2385    4.6181 H       1  UNL1        0.1555
     19 C           8.1671   41.7357    7.0228 C.ar    1  UNL1        0.1451
     20 C           8.2546   40.4210    7.4909 C.ar    1  UNL1        0.0619
     21 C          10.2135   41.2434    6.2462 C.ar    1  UNL1        0.1648
     22 S           9.7558   39.8264    7.0074 S.2     1  UNL1       -0.0507
     23 N           9.2553   42.1868    6.3387 N.ar    1  UNL1       -0.2193
     24 C           7.0006   42.6100    7.2576 C.2     1  UNL1        0.2895
     25 C           5.0492   43.3584    8.6452 C.3     1  UNL1        0.1271
     26 C           4.1424   42.5068    9.4820 C.3     1  UNL1        0.0588
     27 C           4.8393   41.1573    9.4583 C.3     1  UNL1        0.1732
     28 N           6.2050   42.5113    8.4510 N.am    1  UNL1       -0.1634
     29 O           6.7084   43.4747    6.3869 O.2     1  UNL1       -0.2661
     30 O           6.2025   41.3902    9.2156 O.3     1  UNL1       -0.2627
@<TRIPOS>BOND
     1    19    24    1
     2    19    23   ar
     3    20    22   ar
     4    21    22   ar
     5    21    17    1
     6     1     7   ar
     7     2     3   ar
     8     8     3    1
     9     8     9    1
    10     9    10    1
    11    10    11    1
    12    11    13    1
    13    14    13    1
    14    14    15    1
    15    12    13    1
    16    12     8    1
    17     4     6   ar
    18     5     4    1
    19    24    28   am
    20    25    28    1
    21    25    26    1
    22    26    27    1
    23    27    30    1
    24    17     1    1
    25    28    30    1
    26    19    20   ar
    27    21    23   ar
    28     1     2   ar
    29     3     6   ar
    30     4     7   ar
    31    24    29    2
    32    15    16    3
    33    17    18    1
@<TRIPOS>MOLECULE
MolPort-047-073-921 MCULE-9217073820 PubChem-132766369
 30 33 0 0 0
SMALL
GASTEIGER

@<TRIPOS>ATOM
      1 C          16.4581   41.7134    8.5698 C.ar    1  UNL1        0.1361
      2 C          15.1416   41.2534    8.5685 C.ar    1  UNL1        0.0492
      3 C          14.2028   41.9152    7.7774 C.ar    1  UNL1        0.0641
      4 C          15.8699   43.4226    7.0409 C.ar    1  UNL1        0.1406
      5 C          16.2647   44.5940    6.2164 C.3     1  UNL1        0.0737
      6 N          14.5835   42.9864    7.0291 N.ar    1  UNL1       -0.2349
      7 N          16.7956   42.7882    7.8063 N.ar    1  UNL1       -0.2159
      8 C          12.7878   41.4393    7.7625 C.3     1  UNL1        0.0564
      9 C          11.9650   42.1676    8.8163 C.3     1  UNL1        0.0087
     10 C          10.5367   41.6499    8.7871 C.3     1  UNL1        0.0178
     11 C          10.5306   40.1347    9.0112 C.3     1  UNL1        0.0731
     12 C          12.7257   39.9244    7.9965 C.3     1  UNL1        0.0789
     13 N          11.3476   39.4140    8.0220 N.3     1  UNL1       -0.2596
     14 C          10.7530   39.5259    6.6927 C.3     1  UNL1        0.1795
     15 C           9.5168   38.7412    6.6315 C.1     1  UNL1        0.0912
     16 N           8.5408   38.1214    6.5835 N.1     1  UNL1       -0.1944
     17 N          17.4314   41.0430    9.3775 N.pl3   1  UNL1       -0.2781
     18 H          18.2477   41.5422    9.6093 H       1  UNL1        0.1555
     19 C          16.5627   37.6008   10.0596 C.ar    1  UNL1        0.1451
     20 C          17.5133   37.5705   11.0847 C.ar    1  UNL1        0.0619
     21 C          17.3151   39.7064    9.8757 C.ar    1  UNL1        0.1648
     22 S          18.2328   39.0938   11.1324 S.2     1  UNL1       -0.0507
     23 N          16.4543   38.7861    9.3971 N.ar    1  UNL1       -0.2193
     24 C          15.7021   36.4531    9.7099 C.2     1  UNL1        0.2895
     25 C          13.4488   35.3727    9.4886 C.3     1  UNL1        0.1271
     26 C          12.2591   35.5479   10.3840 C.3     1  UNL1        0.0588
     27 C          12.6880   36.6927   11.2856 C.3     1  UNL1        0.1732
     28 N          14.2694   36.5198    9.8082 N.am    1  UNL1       -0.1634
     29 O          16.2472   35.3913    9.3016 O.2     1  UNL1       -0.2661
     30 O          13.6503   37.4411   10.5888 O.3     1  UNL1       -0.2627
@<TRIPOS>BOND
     1    19    24    1
     2    19    23   ar
     3    20    22   ar
     4    21    22   ar
     5    21    17    1
     6     1     7   ar
     7     2     3   ar
     8     8     3    1
     9     8     9    1
    10     9    10    1
    11    10    11    1
    12    11    13    1
    13    14    13    1
    14    14    15    1
    15    12    13    1
    16    12     8    1
    17     4     6   ar
    18     5     4    1
    19    24    28   am
    20    25    28    1
    21    25    26    1
    22    26    27    1
    23    27    30    1
    24    17     1    1
    25    28    30    1
    26    19    20   ar
    27    21    23   ar
    28     1     2   ar
    29     3     6   ar
    30     4     7   ar
    31    24    29    2
    32    15    16    3
    33    17    18    1
@<TRIPOS>MOLECULE
MolPort-047-073-921 MCULE-9217073820 PubChem-132766369
 30 33 0 0 0
SMALL
GASTEIGER

@<TRIPOS>ATOM
      1 C          12.8519   42.1074    6.3207 C.ar    1  UNL1        0.1361
      2 C          12.9175   41.1084    7.2916 C.ar    1  UNL1        0.0492
      3 C          14.0854   40.9818    8.0431 C.ar    1  UNL1        0.0641
      4 C          15.0503   42.7941    6.8689 C.ar    1  UNL1        0.1406
      5 C          16.2013   43.7052    6.6395 C.3     1  UNL1        0.0737
      6 N          15.1294   41.8258    7.8183 N.ar    1  UNL1       -0.2349
      7 N          13.9192   42.9298    6.1290 N.ar    1  UNL1       -0.2159
      8 C          14.1764   39.9182    9.0868 C.3     1  UNL1        0.0564
      9 C          13.2447   40.2266   10.2507 C.3     1  UNL1        0.0087
     10 C          13.3727   39.1364   11.3014 C.3     1  UNL1        0.0178
     11 C          14.8308   39.0255   11.7572 C.3     1  UNL1        0.0731
     12 C          15.6194   39.7758    9.5876 C.3     1  UNL1        0.0789
     13 N          15.7528   38.7600   10.6414 N.3     1  UNL1       -0.2596
     14 C          15.5079   37.4325   10.0840 C.3     1  UNL1        0.1795
     15 C          14.3222   36.8399   10.7091 C.1     1  UNL1        0.0912
     16 N          13.3862   36.3719   11.2031 N.1     1  UNL1       -0.1944
     17 N          11.6587   42.2478    5.5425 N.pl3   1  UNL1       -0.2781
     18 H          11.5559   43.0747    5.0181 H       1  UNL1        0.1555
     19 C           8.5830   40.3645    5.7895 C.ar    1  UNL1        0.1451
     20 C           9.1595   39.3360    5.0378 C.ar    1  UNL1        0.0619
     21 C          10.6030   41.2847    5.4643 C.ar    1  UNL1        0.1648
     22 S          10.7294   39.8218    4.6637 S.2     1  UNL1       -0.0507
     23 N           9.3874   41.4380    6.0260 N.ar    1  UNL1       -0.2193
     24 C           7.2083   40.3117    6.3261 C.2     1  UNL1        0.2895
     25 C           5.4405   41.0624    7.9400 C.3     1  UNL1        0.1271
     26 C           5.6178   41.4372    9.3809 C.3     1  UNL1        0.0588
     27 C           7.1289   41.4717    9.5313 C.3     1  UNL1        0.1732
     28 N           6.7836   41.1531    7.4117 N.am    1  UNL1       -0.1634
     29 O           6.3854   39.5118    5.8025 O.2     1  UNL1       -0.2661
     30 O           7.6739   41.7238    8.2620 O.3     1  UNL1       -0.2627
@<TRIPOS>BOND
     1    19    24    1
     2    19    23   ar
     3    20    22   ar
     4    21    22   ar
     5    21    17    1
     6     1     7   ar
     7     2     3   ar
     8     8     3    1
     9     8     9    1
    10     9    10    1
    11    10    11    1
    12    11    13    1
    13    14    13    1
    14    14    15    1
    15    12    13    1
    16    12     8    1
    17     4     6   ar
    18     5     4    1
    19    24    28   am
    20    25    28    1
    21    25    26    1
    22    26    27    1
    23    27    30    1
    24    17     1    1
    25    28    30    1
    26    19    20   ar
    27    21    23   ar
    28     1     2   ar
    29     3     6   ar
    30     4     7   ar
    31    24    29    2
    32    15    16    3
    33    17    18    1
@<TRIPOS>MOLECULE
MolPort-047-073-921 MCULE-9217073820 PubChem-132766369
 30 33 0 0 0
SMALL
GASTEIGER

@<TRIPOS>ATOM
      1 C           9.4182   41.1986   10.2693 C.ar    1  UNL1        0.1361
      2 C           8.0658   41.4156   10.0071 C.ar    1  UNL1        0.0492
      3 C           7.1902   41.5570   11.0834 C.ar    1  UNL1        0.0641
      4 C           8.9858   41.2696   12.5959 C.ar    1  UNL1        0.1406
      5 C           9.4842   41.1906   13.9934 C.3     1  UNL1        0.0737
      6 N           7.6655   41.4815   12.3566 N.ar    1  UNL1       -0.2349
      7 N           9.8508   41.1300   11.5578 N.ar    1  UNL1       -0.2159
      8 C           5.7384   41.7891   10.8244 C.3     1  UNL1        0.0564
      9 C           4.8925   40.7353   11.5258 C.3     1  UNL1        0.0087
     10 C           3.4238   40.9888   11.2296 C.3     1  UNL1        0.0178
     11 C           3.1930   40.9845    9.7154 C.3     1  UNL1        0.0731
     12 C           5.4512   41.7810    9.3175 C.3     1  UNL1        0.0789
     13 N           4.0261   41.9744    9.0142 N.3     1  UNL1       -0.2596
     14 C           3.6213   43.3294    9.3785 C.3     1  UNL1        0.1795
     15 C           4.1919   44.2920    8.4322 C.1     1  UNL1        0.0912
     16 N           4.6422   45.0523    7.6850 N.1     1  UNL1       -0.1944
     17 N          10.3273   41.0516    9.1733 N.pl3   1  UNL1       -0.2781
     18 H           9.9603   41.1514    8.2652 H       1  UNL1        0.1555
     19 C          13.9357   40.9843    8.9654 C.ar    1  UNL1        0.1451
     20 C          13.9580   39.8756    9.8172 C.ar    1  UNL1        0.0619
     21 C          11.7260   40.7716    9.2896 C.ar    1  UNL1        0.1648
     22 S          12.3566   39.5246   10.2084 S.2     1  UNL1       -0.0507
     23 N          12.6981   41.4730    8.6735 N.ar    1  UNL1       -0.2193
     24 C          15.1496   41.5925    8.3850 C.2     1  UNL1        0.2895
     25 C          16.2939   43.3539    7.0132 C.3     1  UNL1        0.1271
     26 C          15.7866   44.0146    5.7666 C.3     1  UNL1        0.0588
     27 C          14.3497   43.5273    5.6939 C.3     1  UNL1        0.1732
     28 N          15.0951   42.7933    7.5962 N.am    1  UNL1       -0.1634
     29 O          16.2641   41.0436    8.6032 O.2     1  UNL1       -0.2661
     30 O          13.9473   43.2029    6.9994 O.3     1  UNL1       -0.2627
@<TRIPOS>BOND
     1    19    24    1
     2    19    23   ar
     3    20    22   ar
     4    21    22   ar
     5    21    17    1
     6     1     7   ar
     7     2     3   ar
     8     8     3    1
     9     8     9    1
    10     9    10    1
    11    10    11    1
    12    11    13    1
    13    14    13    1
    14    14    15    1
    15    12    13    1
    16    12     8    1
    17     4     6   ar
    18     5     4    1
    19    24    28   am
    20    25    28    1
    21    25    26    1
    22    26    27    1
    23    27    30    1
    24    17     1    1
    25    28    30    1
    26    19    20   ar
    27    21    23   ar
    28     1     2   ar
    29     3     6   ar
    30     4     7   ar
    31    24    29    2
    32    15    16    3
    33    17    18    1
@<TRIPOS>MOLECULE
MolPort-047-073-921 MCULE-9217073820 PubChem-132766369
 30 33 0 0 0
SMALL
GASTEIGER

@<TRIPOS>ATOM
      1 C          14.7071   42.4885    7.5542 C.ar    1  UNL1        0.1361
      2 C          14.9083   41.4461    8.4584 C.ar    1  UNL1        0.0492
      3 C          16.2039   41.1902    8.9065 C.ar    1  UNL1        0.0641
      4 C          17.0259   42.9656    7.5776 C.ar    1  UNL1        0.1406
      5 C          18.1685   43.7872    7.1010 C.3     1  UNL1        0.0737
      6 N          17.2379   41.9535    8.4585 N.ar    1  UNL1       -0.2349
      7 N          15.7695   43.2270    7.1321 N.ar    1  UNL1       -0.2159
      8 C          16.4409   40.0781    9.8739 C.3     1  UNL1        0.0564
      9 C          17.9092   39.6752    9.8801 C.3     1  UNL1        0.0087
     10 C          18.1141   38.5325   10.8605 C.3     1  UNL1        0.0178
     11 C          17.2062   37.3580   10.4836 C.3     1  UNL1        0.0731
     12 C          15.5618   38.8685    9.5314 C.3     1  UNL1        0.0789
     13 N          15.7842   37.7346   10.4398 N.3     1  UNL1       -0.2596
     14 C          15.3055   38.0704   11.7780 C.3     1  UNL1        0.1795
     15 C          14.0828   38.8729   11.6837 C.1     1  UNL1        0.0912
     16 N          13.1176   39.5069   11.6092 N.1     1  UNL1       -0.1944
     17 N          13.3820   42.7615    7.0864 N.pl3   1  UNL1       -0.2781
     18 H          13.2653   43.5302    6.4825 H       1  UNL1        0.1555
     19 C          10.5840   40.4773    7.2356 C.ar    1  UNL1        0.1451
     20 C          10.1961   41.0418    8.4547 C.ar    1  UNL1        0.0619
     21 C          12.2130   42.0083    7.4246 C.ar    1  UNL1        0.1648
     22 S          11.3123   42.2530    8.8123 S.2     1  UNL1       -0.0507
     23 N          11.6978   41.0188    6.6682 N.ar    1  UNL1       -0.2193
     24 C           9.8458   39.3856    6.5697 C.2     1  UNL1        0.2895
     25 C           9.4334   37.8789    4.6067 C.3     1  UNL1        0.1271
     26 C           9.5503   38.2206    3.1515 C.3     1  UNL1        0.0588
     27 C          10.1926   39.5968    3.1844 C.3     1  UNL1        0.1732
     28 N          10.1901   38.9298    5.2504 N.am    1  UNL1       -0.1634
     29 O           8.8952   38.8336    7.1884 O.2     1  UNL1       -0.2661
     30 O          10.9015   39.7032    4.3917 O.3     1  UNL1       -0.2627
@<TRIPOS>BOND
     1    19    24    1
     2    19    23   ar
     3    20    22   ar
     4    21    22   ar
     5    21    17    1
     6     1     7   ar
     7     2     3   ar
     8     8     3    1
     9     8     9    1
    10     9    10    1
    11    10    11    1
    12    11    13    1
    13    14    13    1
    14    14    15    1
    15    12    13    1
    16    12     8    1
    17     4     6   ar
    18     5     4    1
    19    24    28   am
    20    25    28    1
    21    25    26    1
    22    26    27    1
    23    27    30    1
    24    17     1    1
    25    28    30    1
    26    19    20   ar
    27    21    23   ar
    28     1     2   ar
    29     3     6   ar
    30     4     7   ar
    31    24    29    2
    32    15    16    3
    33    17    18    1
@<TRIPOS>MOLECULE
MolPort-047-073-921 MCULE-9217073820 PubChem-132766369
 30 33 0 0 0
SMALL
GASTEIGER

@<TRIPOS>ATOM
      1 C          16.4275   41.6990    8.5573 C.ar    1  UNL1        0.1361
      2 C          15.0957   41.2879    8.5118 C.ar    1  UNL1        0.0492
      3 C          14.2127   41.9721    7.6769 C.ar    1  UNL1        0.0641
      4 C          15.9614   43.4064    6.9848 C.ar    1  UNL1        0.1406
      5 C          16.4305   44.5504    6.1608 C.3     1  UNL1        0.0737
      6 N          14.6610   43.0178    6.9296 N.ar    1  UNL1       -0.2349
      7 N          16.8334   42.7496    7.7932 N.ar    1  UNL1       -0.2159
      8 C          12.7826   41.5485    7.6142 C.3     1  UNL1        0.0564
      9 C          11.9517   42.3087    8.6388 C.3     1  UNL1        0.0087
     10 C          10.5072   41.8437    8.5614 C.3     1  UNL1        0.0178
     11 C          10.4378   40.3303    8.7865 C.3     1  UNL1        0.0731
     12 C          12.6569   40.0374    7.8473 C.3     1  UNL1        0.0789
     13 N          11.2609   39.5780    7.8262 N.3     1  UNL1       -0.2596
     14 C          10.7163   39.7088    6.4774 C.3     1  UNL1        0.1795
     15 C           9.4939   38.9101    6.3533 C.1     1  UNL1        0.0912
     16 N           8.5287   38.2793    6.2556 N.1     1  UNL1       -0.1944
     17 N          17.3440   41.0051    9.4102 N.pl3   1  UNL1       -0.2781
     18 H          18.1864   41.4621    9.6354 H       1  UNL1        0.1555
     19 C          16.4438   37.5712   10.0931 C.ar    1  UNL1        0.1451
     20 C          17.0477   37.6693   11.3505 C.ar    1  UNL1        0.0619
     21 C          17.1361   39.7012    9.9624 C.ar    1  UNL1        0.1648
     22 S          17.6622   39.2334   11.4794 S.2     1  UNL1       -0.0507
     23 N          16.4918   38.6994    9.3313 N.ar    1  UNL1       -0.2193
     24 C          15.7701   36.3517    9.6039 C.2     1  UNL1        0.2895
     25 C          15.6613   34.3424    8.1057 C.3     1  UNL1        0.1271
     26 C          16.1322   34.2338    6.6864 C.3     1  UNL1        0.0588
     27 C          16.8815   35.5396    6.4845 C.3     1  UNL1        0.1732
     28 N          16.3539   35.5158    8.5903 N.am    1  UNL1       -0.1634
     29 O          14.6565   36.0343   10.1043 O.2     1  UNL1       -0.2661
     30 O          17.3104   35.9799    7.7470 O.3     1  UNL1       -0.2627
@<TRIPOS>BOND
     1    19    24    1
     2    19    23   ar
     3    20    22   ar
     4    21    22   ar
     5    21    17    1
     6     1     7   ar
     7     2     3   ar
     8     8     3    1
     9     8     9    1
    10     9    10    1
    11    10    11    1
    12    11    13    1
    13    14    13    1
    14    14    15    1
    15    12    13    1
    16    12     8    1
    17     4     6   ar
    18     5     4    1
    19    24    28   am
    20    25    28    1
    21    25    26    1
    22    26    27    1
    23    27    30    1
    24    17     1    1
    25    28    30    1
    26    19    20   ar
    27    21    23   ar
    28     1     2   ar
    29     3     6   ar
    30     4     7   ar
    31    24    29    2
    32    15    16    3
    33    17    18    1
@<TRIPOS>MOLECULE
MolPort-047-073-921 MCULE-9217073820 PubChem-132766369
 30 33 0 0 0
SMALL
GASTEIGER

@<TRIPOS>ATOM
      1 C          12.2617   41.4716    6.1601 C.ar    1  UNL1        0.1361
      2 C          12.4291   40.5425    7.1865 C.ar    1  UNL1        0.0492
      3 C          13.5311   40.6709    8.0316 C.ar    1  UNL1        0.0641
      4 C          14.2373   42.5865    6.8377 C.ar    1  UNL1        0.1406
      5 C          15.2130   43.6910    6.6480 C.3     1  UNL1        0.0737
      6 N          14.4141   41.6892    7.8420 N.ar    1  UNL1       -0.2349
      7 N          13.1688   42.4746    6.0064 N.ar    1  UNL1       -0.2159
      8 C          13.7292   39.6861    9.1360 C.3     1  UNL1        0.0564
      9 C          13.0463   40.1634   10.4103 C.3     1  UNL1        0.0087
     10 C          13.2801   39.1494   11.5176 C.3     1  UNL1        0.0178
     11 C          14.7840   38.9452   11.7234 C.3     1  UNL1        0.0731
     12 C          15.2241   39.4555    9.3914 C.3     1  UNL1        0.0789
     13 N          15.4692   38.5151   10.4941 N.3     1  UNL1       -0.2596
     14 C          15.0315   37.1758   10.1099 C.3     1  UNL1        0.1795
     15 C          15.8738   36.6683    9.0233 C.1     1  UNL1        0.0912
     16 N          16.5390   36.2671    8.1656 N.1     1  UNL1       -0.1944
     17 N          11.1348   41.3510    5.2856 N.pl3   1  UNL1       -0.2781
     18 H          11.3084   41.3871    4.3172 H       1  UNL1        0.1555
     19 C           7.7488   41.7253    6.4952 C.ar    1  UNL1        0.1451
     20 C           7.5299   40.3600    6.2867 C.ar    1  UNL1        0.0619
     21 C           9.7766   41.1820    5.7038 C.ar    1  UNL1        0.1648
     22 S           8.9629   39.7213    5.6709 S.2     1  UNL1       -0.0507
     23 N           8.9947   42.1736    6.1752 N.ar    1  UNL1       -0.2193
     24 C           6.7296   42.6408    7.0460 C.2     1  UNL1        0.2895
     25 C           5.1794   43.3693    8.8789 C.3     1  UNL1        0.1271
     26 C           4.4067   42.4978    9.8230 C.3     1  UNL1        0.0588
     27 C           4.9762   41.1179    9.5423 C.3     1  UNL1        0.1732
     28 N           6.1989   42.4777    8.3722 N.am    1  UNL1       -0.1634
     29 O           6.3279   43.5988    6.3305 O.2     1  UNL1       -0.2661
     30 O           6.2712   41.2920    9.0283 O.3     1  UNL1       -0.2627
@<TRIPOS>BOND
     1    19    24    1
     2    19    23   ar
     3    20    22   ar
     4    21    22   ar
     5    21    17    1
     6     1     7   ar
     7     2     3   ar
     8     8     3    1
     9     8     9    1
    10     9    10    1
    11    10    11    1
    12    11    13    1
    13    14    13    1
    14    14    15    1
    15    12    13    1
    16    12     8    1
    17     4     6   ar
    18     5     4    1
    19    24    28   am
    20    25    28    1
    21    25    26    1
    22    26    27    1
    23    27    30    1
    24    17     1    1
    25    28    30    1
    26    19    20   ar
    27    21    23   ar
    28     1     2   ar
    29     3     6   ar
    30     4     7   ar
    31    24    29    2
    32    15    16    3
    33    17    18    1
@<TRIPOS>MOLECULE
MolPort-047-073-921 MCULE-9217073820 PubChem-132766369
 30 33 0 0 0
SMALL
GASTEIGER

@<TRIPOS>ATOM
      1 C          12.5865   42.7658    7.6015 C.ar    1  UNL1        0.1361
      2 C          11.7370   42.0124    6.7918 C.ar    1  UNL1        0.0492
      3 C          10.4522   41.7272    7.2533 C.ar    1  UNL1        0.0641
      4 C          10.8936   42.9164    9.2496 C.ar    1  UNL1        0.1406
      5 C          10.4396   43.4053   10.5772 C.3     1  UNL1        0.0737
      6 N          10.0544   42.1837    8.4724 N.ar    1  UNL1       -0.2349
      7 N          12.1479   43.2024    8.8136 N.ar    1  UNL1       -0.2159
      8 C           9.5274   40.9215    6.4023 C.3     1  UNL1        0.0564
      9 C           8.0784   41.1735    6.7960 C.3     1  UNL1        0.0087
     10 C           7.1649   40.3280    5.9244 C.3     1  UNL1        0.0178
     11 C           7.5404   38.8495    6.0627 C.3     1  UNL1        0.0731
     12 C           9.8541   39.4269    6.5159 C.3     1  UNL1        0.0789
     13 N           8.9472   38.5894    5.7182 N.3     1  UNL1       -0.2596
     14 C           9.1751   38.8279    4.2955 C.3     1  UNL1        0.1795
     15 C           9.6254   37.5925    3.6484 C.1     1  UNL1        0.0912
     16 N           9.9806   36.6169    3.1374 N.1     1  UNL1       -0.1944
     17 N          13.9078   43.0654    7.1394 N.pl3   1  UNL1       -0.2781
     18 H          13.9901   43.6696    6.3664 H       1  UNL1        0.1555
     19 C          16.4814   41.1856    8.8456 C.ar    1  UNL1        0.1451
     20 C          17.4264   42.1418    8.4607 C.ar    1  UNL1        0.0619
     21 C          15.1190   42.5586    7.7089 C.ar    1  UNL1        0.1648
     22 S          16.6065   43.3088    7.5628 S.2     1  UNL1       -0.0507
     23 N          15.2060   41.4235    8.4306 N.ar    1  UNL1       -0.2193
     24 C          16.8056   40.0014    9.6659 C.2     1  UNL1        0.2895
     25 C          16.1240   37.9927   11.0054 C.3     1  UNL1        0.1271
     26 C          14.9261   37.8513   11.8959 C.3     1  UNL1        0.0588
     27 C          14.1374   39.1140   11.5942 C.3     1  UNL1        0.1732
     28 N          15.7839   39.1299   10.1792 N.am    1  UNL1       -0.1634
     29 O          18.0171   39.7469    9.9076 O.2     1  UNL1       -0.2661
     30 O          14.4956   39.5375   10.3042 O.3     1  UNL1       -0.2627
@<TRIPOS>BOND
     1    19    24    1
     2    19    23   ar
     3    20    22   ar
     4    21    22   ar
     5    21    17    1
     6     1     7   ar
     7     2     3   ar
     8     8     3    1
     9     8     9    1
    10     9    10    1
    11    10    11    1
    12    11    13    1
    13    14    13    1
    14    14    15    1
    15    12    13    1
    16    12     8    1
    17     4     6   ar
    18     5     4    1
    19    24    28   am
    20    25    28    1
    21    25    26    1
    22    26    27    1
    23    27    30    1
    24    17     1    1
    25    28    30    1
    26    19    20   ar
    27    21    23   ar
    28     1     2   ar
    29     3     6   ar
    30     4     7   ar
    31    24    29    2
    32    15    16    3
    33    17    18    1
