@<TRIPOS>MOLECULE
Molport-047-042-891 MCULE-9701418706 PubChem-132765288
 27 29 0 0 0
SMALL
GASTEIGER

@<TRIPOS>ATOM
      1 C          11.3203   38.4897    9.0263 C.3     1  UNL1        0.0729
      2 C          11.8434   38.8409   10.3958 C.3     1  UNL1        0.0191
      3 C          12.1667   40.3060   10.2998 C.3     1  UNL1        0.0235
      4 C          11.3259   40.8256    9.1431 C.3     1  UNL1        0.0991
      5 N          10.7003   39.6863    8.4740 N.3     1  UNL1       -0.2614
      6 C          10.2725   41.7971    9.5946 C.ar    1  UNL1        0.0819
      7 C          10.5996   43.0908   10.0067 C.ar    1  UNL1        0.0542
      8 C           8.2040   42.5182   10.0675 C.ar    1  UNL1        0.1652
      9 N           8.9469   41.4818    9.6308 N.ar    1  UNL1       -0.2269
     10 S           9.1533   43.8492   10.4227 S.2     1  UNL1       -0.0511
     11 C           6.0734   41.7265   11.1936 C.2     1  UNL1        0.2280
     12 C           4.5893   41.7856   11.2336 C.3     1  UNL1        0.0950
     13 N           6.7808   42.4882   10.2103 N.am    1  UNL1       -0.2641
     14 O           6.6873   41.0070   12.0252 O.2     1  UNL1       -0.2747
     15 H           6.2487   43.0320    9.5855 H       1  UNL1        0.1567
     16 C          11.0758   39.7491    7.0704 C.3     1  UNL1        0.1590
     17 C          11.8870   40.9721    6.8228 C.2     1  UNL1        0.2426
     18 N          13.2780   40.9710    7.1595 N.am    1  UNL1       -0.2806
     19 O          11.3317   42.0002    6.3528 O.2     1  UNL1       -0.2733
     20 H          13.6553   40.1355    7.5184 H       1  UNL1        0.1550
     21 C          14.1659   42.0850    7.0172 C.ar    1  UNL1        0.0848
     22 C          14.0233   43.1783    6.1842 C.ar    1  UNL1        0.1110
     23 C          15.3422   42.2710    7.7067 C.ar    1  UNL1        0.0938
     24 C          15.9244   41.3609    8.7302 C.3     1  UNL1        0.0553
     25 C          15.3638   45.2195    5.7395 C.3     1  UNL1        0.1538
     26 N          15.1009   43.9578    6.4050 N.ar    1  UNL1       -0.2464
     27 N          15.9031   43.4284    7.3168 N.ar    1  UNL1       -0.1723
@<TRIPOS>BOND
     1    21    18    1
     2    16    17    1
     3    16     5    1
     4     1     5    1
     5     1     2    1
     6     2     3    1
     7     3     4    1
     8     4     6    1
     9     4     5    1
    10     6     9   ar
    11     7    10   ar
    12     8    10   ar
    13     8    13    1
    14    12    11    1
    15    22    26   ar
    16    23    21   ar
    17    24    23    1
    18    25    26    1
    19    18    17   am
    20    13    11   am
    21    26    27   ar
    22    21    22   ar
    23    17    19    2
    24     6     7   ar
    25     8     9   ar
    26    11    14    2
    27    23    27   ar
    28    18    20    1
    29    13    15    1
@<TRIPOS>MOLECULE
Molport-047-042-891 MCULE-9701418706 PubChem-132765288
 27 29 0 0 0
SMALL
GASTEIGER

@<TRIPOS>ATOM
      1 C          11.9506   38.5770   10.2627 C.3     1  UNL1        0.0729
      2 C          11.8113   37.9588    8.8949 C.3     1  UNL1        0.0191
      3 C          11.2698   39.0728    8.0429 C.3     1  UNL1        0.0235
      4 C          11.6487   40.3535    8.7717 C.3     1  UNL1        0.0991
      5 N          12.2036   39.9993   10.0770 N.3     1  UNL1       -0.2614
      6 C          12.6395   41.1776    7.9996 C.ar    1  UNL1        0.0819
      7 C          12.2654   41.8918    6.8592 C.ar    1  UNL1        0.0542
      8 C          14.6340   42.0762    7.5123 C.ar    1  UNL1        0.1652
      9 N          13.9507   41.2795    8.3581 N.ar    1  UNL1       -0.2269
     10 S          13.6485   42.6760    6.3007 S.2     1  UNL1       -0.0511
     11 C          16.6042   43.6729    7.4591 C.2     1  UNL1        0.2280
     12 C          18.0717   43.8464    7.6134 C.3     1  UNL1        0.0950
     13 N          16.0279   42.3747    7.6326 N.am    1  UNL1       -0.2641
     14 O          15.8887   44.6704    7.1777 O.2     1  UNL1       -0.2747
     15 H          16.6358   41.6317    7.8508 H       1  UNL1        0.1567
     16 C          11.4251   40.7033   11.0836 C.3     1  UNL1        0.1590
     17 C          10.4125   41.5686   10.4195 C.2     1  UNL1        0.2426
     18 N           9.1460   41.0117   10.0536 N.am    1  UNL1       -0.2806
     19 O          10.6963   42.7677   10.1588 O.2     1  UNL1       -0.2733
     20 H           8.9816   40.0700   10.2889 H       1  UNL1        0.1550
     21 C           8.0984   41.7116    9.3735 C.ar    1  UNL1        0.0848
     22 C           8.1515   42.3107    8.1294 C.ar    1  UNL1        0.1110
     23 C           6.8217   41.9092    9.8474 C.ar    1  UNL1        0.0938
     24 C           6.2760   41.4403   11.1501 C.3     1  UNL1        0.0553
     25 C           6.5307   43.5590    6.7236 C.3     1  UNL1        0.1538
     26 N           6.9273   42.8333    7.9153 N.ar    1  UNL1       -0.2464
     27 N           6.1159   42.6010    8.9365 N.ar    1  UNL1       -0.1723
@<TRIPOS>BOND
     1    21    18    1
     2    16    17    1
     3    16     5    1
     4     1     5    1
     5     1     2    1
     6     2     3    1
     7     3     4    1
     8     4     6    1
     9     4     5    1
    10     6     9   ar
    11     7    10   ar
    12     8    10   ar
    13     8    13    1
    14    12    11    1
    15    22    26   ar
    16    23    21   ar
    17    24    23    1
    18    25    26    1
    19    18    17   am
    20    13    11   am
    21    26    27   ar
    22    21    22   ar
    23    17    19    2
    24     6     7   ar
    25     8     9   ar
    26    11    14    2
    27    23    27   ar
    28    18    20    1
    29    13    15    1
@<TRIPOS>MOLECULE
Molport-047-042-891 MCULE-9701418706 PubChem-132765288
 27 29 0 0 0
SMALL
GASTEIGER

@<TRIPOS>ATOM
      1 C          12.3188   40.1215   11.2817 C.3     1  UNL1        0.0729
      2 C          13.6131   39.4164   10.9657 C.3     1  UNL1        0.0191
      3 C          13.5624   39.2073    9.4777 C.3     1  UNL1        0.0235
      4 C          12.5810   40.2488    8.9611 C.3     1  UNL1        0.0991
      5 N          11.9432   40.8956   10.1066 N.3     1  UNL1       -0.2614
      6 C          13.2469   41.2801    8.0950 C.ar    1  UNL1        0.0819
      7 C          12.5074   42.1244    7.2638 C.ar    1  UNL1        0.0542
      8 C          14.9505   42.4402    7.2150 C.ar    1  UNL1        0.1652
      9 N          14.5983   41.4552    8.0650 N.ar    1  UNL1       -0.2269
     10 S          13.6135   43.1221    6.4756 S.2     1  UNL1       -0.0511
     11 C          16.6762   44.0947    6.3672 C.2     1  UNL1        0.2280
     12 C          18.1167   44.4030    6.1737 C.3     1  UNL1        0.0950
     13 N          16.2981   42.8545    6.9728 N.am    1  UNL1       -0.2641
     14 O          15.8088   44.9287    5.9956 O.2     1  UNL1       -0.2747
     15 H          17.0190   42.2408    7.2427 H       1  UNL1        0.1567
     16 C          10.5059   40.7469    9.9425 C.3     1  UNL1        0.1590
     17 C          10.2212   39.9406    8.7244 C.2     1  UNL1        0.2426
     18 N           9.7727   40.5999    7.5360 N.am    1  UNL1       -0.2806
     19 O          10.3461   38.6880    8.7664 O.2     1  UNL1       -0.2733
     20 H           9.6998   41.5813    7.5639 H       1  UNL1        0.1550
     21 C           9.4214   39.9496    6.3098 C.ar    1  UNL1        0.0848
     22 C          10.2740   39.4353    5.3517 C.ar    1  UNL1        0.1110
     23 C           8.1422   39.7103    5.8625 C.ar    1  UNL1        0.0938
     24 C           6.8769   40.0751    6.5556 C.3     1  UNL1        0.0553
     25 C           9.9609   38.2728    3.1810 C.3     1  UNL1        0.1538
     26 N           9.4840   38.9203    4.3882 N.ar    1  UNL1       -0.2464
     27 N           8.2010   39.0762    4.6789 N.ar    1  UNL1       -0.1723
@<TRIPOS>BOND
     1    21    18    1
     2    16    17    1
     3    16     5    1
     4     1     5    1
     5     1     2    1
     6     2     3    1
     7     3     4    1
     8     4     6    1
     9     4     5    1
    10     6     9   ar
    11     7    10   ar
    12     8    10   ar
    13     8    13    1
    14    12    11    1
    15    22    26   ar
    16    23    21   ar
    17    24    23    1
    18    25    26    1
    19    18    17   am
    20    13    11   am
    21    26    27   ar
    22    21    22   ar
    23    17    19    2
    24     6     7   ar
    25     8     9   ar
    26    11    14    2
    27    23    27   ar
    28    18    20    1
    29    13    15    1
@<TRIPOS>MOLECULE
Molport-047-042-891 MCULE-9701418706 PubChem-132765288
 27 29 0 0 0
SMALL
GASTEIGER

@<TRIPOS>ATOM
      1 C           8.4609   39.6213    5.5273 C.3     1  UNL1        0.0729
      2 C           9.4829   38.9525    4.6438 C.3     1  UNL1        0.0191
      3 C          10.4550   40.0504    4.3122 C.3     1  UNL1        0.0235
      4 C          10.2836   41.0827    5.4166 C.3     1  UNL1        0.0991
      5 N           9.1337   40.7019    6.2351 N.3     1  UNL1       -0.2614
      6 C          11.5082   41.2053    6.2782 C.ar    1  UNL1        0.0819
      7 C          11.6364   40.4924    7.4722 C.ar    1  UNL1        0.0542
      8 C          13.5357   41.9461    6.8807 C.ar    1  UNL1        0.1652
      9 N          12.5593   42.0104    5.9538 N.ar    1  UNL1       -0.2269
     10 S          13.1356   40.9012    8.1245 S.2     1  UNL1       -0.0511
     11 C          14.9097   43.9768    6.2304 C.2     1  UNL1        0.2280
     12 C          16.2451   44.6282    6.2264 C.3     1  UNL1        0.0950
     13 N          14.7630   42.6781    6.8129 N.am    1  UNL1       -0.2641
     14 O          13.9264   44.5764    5.7209 O.2     1  UNL1       -0.2747
     15 H          15.5665   42.2569    7.1956 H       1  UNL1        0.1567
     16 C           8.2194   41.8329    6.2498 C.3     1  UNL1        0.1590
     17 C           7.3503   41.7592    7.4557 C.2     1  UNL1        0.2426
     18 N           6.1282   42.5032    7.4858 N.am    1  UNL1       -0.2806
     19 O           7.7183   41.0714    8.4446 O.2     1  UNL1       -0.2733
     20 H           5.8925   43.0177    6.6802 H       1  UNL1        0.1550
     21 C           5.2199   42.5606    8.5911 C.ar    1  UNL1        0.0848
     22 C           5.1144   41.6732    9.6450 C.ar    1  UNL1        0.1110
     23 C           4.2746   43.5369    8.8071 C.ar    1  UNL1        0.0938
     24 C           4.0069   44.7196    7.9444 C.3     1  UNL1        0.0553
     25 C           3.6754   41.5233   11.6620 C.3     1  UNL1        0.1538
     26 N           4.1276   42.1462   10.4326 N.ar    1  UNL1       -0.2464
     27 N           3.6126   43.2650    9.9447 N.ar    1  UNL1       -0.1723
@<TRIPOS>BOND
     1    21    18    1
     2    16    17    1
     3    16     5    1
     4     1     5    1
     5     1     2    1
     6     2     3    1
     7     3     4    1
     8     4     6    1
     9     4     5    1
    10     6     9   ar
    11     7    10   ar
    12     8    10   ar
    13     8    13    1
    14    12    11    1
    15    22    26   ar
    16    23    21   ar
    17    24    23    1
    18    25    26    1
    19    18    17   am
    20    13    11   am
    21    26    27   ar
    22    21    22   ar
    23    17    19    2
    24     6     7   ar
    25     8     9   ar
    26    11    14    2
    27    23    27   ar
    28    18    20    1
    29    13    15    1
@<TRIPOS>MOLECULE
Molport-047-042-891 MCULE-9701418706 PubChem-132765288
 27 29 0 0 0
SMALL
GASTEIGER

@<TRIPOS>ATOM
      1 C           8.5232   39.6917    5.7850 C.3     1  UNL1        0.0729
      2 C           9.4932   38.8506    4.9953 C.3     1  UNL1        0.0191
      3 C          10.5340   39.8309    4.5305 C.3     1  UNL1        0.0235
      4 C          10.4381   41.0030    5.4958 C.3     1  UNL1        0.0991
      5 N           9.2703   40.8056    6.3529 N.3     1  UNL1       -0.2614
      6 C          11.6733   41.1512    6.3381 C.ar    1  UNL1        0.0819
      7 C          11.8684   40.3865    7.4904 C.ar    1  UNL1        0.0542
      8 C          13.6693   41.9748    6.9382 C.ar    1  UNL1        0.1652
      9 N          12.6700   42.0305    6.0355 N.ar    1  UNL1       -0.2269
     10 S          13.3568   40.8464    8.1333 S.2     1  UNL1       -0.0511
     11 C          14.9437   44.0568    6.2488 C.2     1  UNL1        0.2280
     12 C          16.2362   44.7894    6.2667 C.3     1  UNL1        0.0950
     13 N          14.8518   42.7781    6.8845 N.am    1  UNL1       -0.2641
     14 O          13.9480   44.5712    5.6743 O.2     1  UNL1       -0.2747
     15 H          15.6626   42.4250    7.3172 H       1  UNL1        0.1567
     16 C           8.4333   41.9877    6.2228 C.3     1  UNL1        0.1590
     17 C           7.7705   42.2781    7.5234 C.2     1  UNL1        0.2426
     18 N           7.1948   41.2032    8.2725 N.am    1  UNL1       -0.2806
     19 O           7.6957   43.4680    7.9295 O.2     1  UNL1       -0.2733
     20 H           7.2903   40.2947    7.9053 H       1  UNL1        0.1550
     21 C           6.4915   41.3403    9.5120 C.ar    1  UNL1        0.0848
     22 C           5.1293   41.2488    9.7252 C.ar    1  UNL1        0.1110
     23 C           7.0627   41.5862   10.7395 C.ar    1  UNL1        0.0938
     24 C           8.5131   41.7577   11.0251 C.3     1  UNL1        0.0553
     25 C           3.6592   41.4290   11.7171 C.3     1  UNL1        0.1538
     26 N           4.9456   41.4415   11.0469 N.ar    1  UNL1       -0.2464
     27 N           6.0960   41.6449   11.6714 N.ar    1  UNL1       -0.1723
@<TRIPOS>BOND
     1    21    18    1
     2    16    17    1
     3    16     5    1
     4     1     5    1
     5     1     2    1
     6     2     3    1
     7     3     4    1
     8     4     6    1
     9     4     5    1
    10     6     9   ar
    11     7    10   ar
    12     8    10   ar
    13     8    13    1
    14    12    11    1
    15    22    26   ar
    16    23    21   ar
    17    24    23    1
    18    25    26    1
    19    18    17   am
    20    13    11   am
    21    26    27   ar
    22    21    22   ar
    23    17    19    2
    24     6     7   ar
    25     8     9   ar
    26    11    14    2
    27    23    27   ar
    28    18    20    1
    29    13    15    1
@<TRIPOS>MOLECULE
Molport-047-042-891 MCULE-9701418706 PubChem-132765288
 27 29 0 0 0
SMALL
GASTEIGER

@<TRIPOS>ATOM
      1 C          10.7292   40.0487    9.8161 C.3     1  UNL1        0.0729
      2 C          10.7308   41.1845   10.8072 C.3     1  UNL1        0.0191
      3 C          10.4198   42.3973    9.9749 C.3     1  UNL1        0.0235
      4 C           9.7244   41.8614    8.7323 C.3     1  UNL1        0.0991
      5 N           9.8059   40.4018    8.7465 N.3     1  UNL1       -0.2614
      6 C           8.2880   42.2941    8.6509 C.ar    1  UNL1        0.0819
      7 C           7.9375   43.6302    8.4440 C.ar    1  UNL1        0.0542
      8 C           6.0603   42.0492    8.6610 C.ar    1  UNL1        0.1652
      9 N           7.2479   41.4215    8.7726 N.ar    1  UNL1       -0.2269
     10 S           6.2538   43.6922    8.4118 S.2     1  UNL1       -0.0511
     11 C           3.5992   41.9871    9.2721 C.2     1  UNL1        0.2280
     12 C           2.3419   41.1958    9.2995 C.3     1  UNL1        0.0950
     13 N           4.7905   41.3956    8.7442 N.am    1  UNL1       -0.2641
     14 O           3.5987   43.1664    9.7138 O.2     1  UNL1       -0.2747
     15 H           4.7318   40.4701    8.4136 H       1  UNL1        0.1567
     16 C          10.4270   39.9910    7.4973 C.3     1  UNL1        0.1590
     17 C          11.3839   41.0375    7.0454 C.2     1  UNL1        0.2426
     18 N          12.7175   41.0396    7.5645 N.am    1  UNL1       -0.2806
     19 O          10.9975   41.9251    6.2397 O.2     1  UNL1       -0.2733
     20 H          12.9612   40.3166    8.1868 H       1  UNL1        0.1550
     21 C          13.7265   42.0066    7.2533 C.ar    1  UNL1        0.0848
     22 C          13.6246   43.0897    6.4014 C.ar    1  UNL1        0.1110
     23 C          15.0033   42.0321    7.7657 C.ar    1  UNL1        0.0938
     24 C          15.5890   41.0694    8.7377 C.3     1  UNL1        0.0553
     25 C          15.1665   44.8997    5.6885 C.3     1  UNL1        0.1538
     26 N          14.8231   43.7061    6.4379 N.ar    1  UNL1       -0.2464
     27 N          15.6629   43.0847    7.2526 N.ar    1  UNL1       -0.1723
@<TRIPOS>BOND
     1    21    18    1
     2    16    17    1
     3    16     5    1
     4     1     5    1
     5     1     2    1
     6     2     3    1
     7     3     4    1
     8     4     6    1
     9     4     5    1
    10     6     9   ar
    11     7    10   ar
    12     8    10   ar
    13     8    13    1
    14    12    11    1
    15    22    26   ar
    16    23    21   ar
    17    24    23    1
    18    25    26    1
    19    18    17   am
    20    13    11   am
    21    26    27   ar
    22    21    22   ar
    23    17    19    2
    24     6     7   ar
    25     8     9   ar
    26    11    14    2
    27    23    27   ar
    28    18    20    1
    29    13    15    1
@<TRIPOS>MOLECULE
Molport-047-042-891 MCULE-9701418706 PubChem-132765288
 27 29 0 0 0
SMALL
GASTEIGER

@<TRIPOS>ATOM
      1 C          12.7307   39.5070   11.0731 C.3     1  UNL1        0.0729
      2 C          13.9660   39.1139   11.8425 C.3     1  UNL1        0.0191
      3 C          14.9590   38.7430   10.7763 C.3     1  UNL1        0.0235
      4 C          14.4768   39.4497    9.5181 C.3     1  UNL1        0.0991
      5 N          13.1650   40.0361    9.7876 N.3     1  UNL1       -0.2614
      6 C          15.4313   40.5161    9.0613 C.ar    1  UNL1        0.0819
      7 C          16.7560   40.5494    9.5026 C.ar    1  UNL1        0.0542
      8 C          16.1000   42.3371    7.9391 C.ar    1  UNL1        0.1652
      9 N          15.0701   41.5071    8.1978 N.ar    1  UNL1       -0.2269
     10 S          17.4816   41.8790    8.7639 S.2     1  UNL1       -0.0511
     11 C          14.8162   43.9967    6.5136 C.2     1  UNL1        0.2280
     12 C          14.8792   45.1824    5.6205 C.3     1  UNL1        0.0950
     13 N          16.0255   43.4695    7.0680 N.am    1  UNL1       -0.2641
     14 O          13.7001   43.4725    6.7696 O.2     1  UNL1       -0.2747
     15 H          16.8688   43.9195    6.8325 H       1  UNL1        0.1567
     16 C          12.2464   39.5207    8.7848 C.3     1  UNL1        0.1590
     17 C          11.3760   40.6216    8.2894 C.2     1  UNL1        0.2426
     18 N          10.2078   40.9810    9.0339 N.am    1  UNL1       -0.2806
     19 O          11.6606   41.1979    7.2062 O.2     1  UNL1       -0.2733
     20 H          10.0418   40.4975    9.8753 H       1  UNL1        0.1550
     21 C           9.2606   41.9858    8.6556 C.ar    1  UNL1        0.0848
     22 C           8.3765   41.9568    7.5940 C.ar    1  UNL1        0.1110
     23 C           9.0541   43.1827    9.3025 C.ar    1  UNL1        0.0938
     24 C           9.7663   43.6709   10.5145 C.3     1  UNL1        0.0553
     25 C           6.6512   43.5113    6.7174 C.3     1  UNL1        0.1538
     26 N           7.6915   43.1168    7.6482 N.ar    1  UNL1       -0.2464
     27 N           8.0851   43.8647    8.6683 N.ar    1  UNL1       -0.1723
@<TRIPOS>BOND
     1    21    18    1
     2    16    17    1
     3    16     5    1
     4     1     5    1
     5     1     2    1
     6     2     3    1
     7     3     4    1
     8     4     6    1
     9     4     5    1
    10     6     9   ar
    11     7    10   ar
    12     8    10   ar
    13     8    13    1
    14    12    11    1
    15    22    26   ar
    16    23    21   ar
    17    24    23    1
    18    25    26    1
    19    18    17   am
    20    13    11   am
    21    26    27   ar
    22    21    22   ar
    23    17    19    2
    24     6     7   ar
    25     8     9   ar
    26    11    14    2
    27    23    27   ar
    28    18    20    1
    29    13    15    1
@<TRIPOS>MOLECULE
Molport-047-042-891 MCULE-9701418706 PubChem-132765288
 27 29 0 0 0
SMALL
GASTEIGER

@<TRIPOS>ATOM
      1 C          10.6600   40.2899   10.4853 C.3     1  UNL1        0.0729
      2 C          11.9935   40.1591   11.1758 C.3     1  UNL1        0.0191
      3 C          12.9032   39.6066   10.1140 C.3     1  UNL1        0.0235
      4 C          12.2423   39.9706    8.7928 C.3     1  UNL1        0.0991
      5 N          10.9198   40.5277    9.0720 N.3     1  UNL1       -0.2614
      6 C          13.0558   40.9534    7.9995 C.ar    1  UNL1        0.0819
      7 C          12.4985   41.6823    6.9466 C.ar    1  UNL1        0.0542
      8 C          14.8792   42.1157    7.4106 C.ar    1  UNL1        0.1652
      9 N          14.3734   41.1934    8.2533 N.ar    1  UNL1       -0.2269
     10 S          13.7241   42.6609    6.3300 S.2     1  UNL1       -0.0511
     11 C          16.6565   43.8952    7.0804 C.2     1  UNL1        0.2280
     12 C          18.0993   44.2429    7.1498 C.3     1  UNL1        0.0950
     13 N          16.2340   42.5746    7.4342 N.am    1  UNL1       -0.2641
     14 O          15.8262   44.7672    6.7111 O.2     1  UNL1       -0.2747
     15 H          16.9271   41.9342    7.7147 H       1  UNL1        0.1567
     16 C           9.9520   39.7403    8.3247 C.3     1  UNL1        0.1590
     17 C           8.7123   40.5369    8.1155 C.2     1  UNL1        0.2426
     18 N           7.9800   41.0059    9.2521 N.am    1  UNL1       -0.2806
     19 O           8.3073   40.7578    6.9436 O.2     1  UNL1       -0.2733
     20 H           8.3502   40.8056   10.1421 H       1  UNL1        0.1550
     21 C           6.7533   41.7424    9.2012 C.ar    1  UNL1        0.0848
     22 C           5.4695   41.2578    9.3634 C.ar    1  UNL1        0.1110
     23 C           6.6347   43.0960    8.9838 C.ar    1  UNL1        0.0938
     24 C           7.7464   44.0597    8.7598 C.3     1  UNL1        0.0553
     25 C           3.2049   42.2739    9.3370 C.3     1  UNL1        0.1538
     26 N           4.6512   42.3219    9.2373 N.ar    1  UNL1       -0.2464
     27 N           5.3342   43.4340    9.0097 N.ar    1  UNL1       -0.1723
@<TRIPOS>BOND
     1    21    18    1
     2    16    17    1
     3    16     5    1
     4     1     5    1
     5     1     2    1
     6     2     3    1
     7     3     4    1
     8     4     6    1
     9     4     5    1
    10     6     9   ar
    11     7    10   ar
    12     8    10   ar
    13     8    13    1
    14    12    11    1
    15    22    26   ar
    16    23    21   ar
    17    24    23    1
    18    25    26    1
    19    18    17   am
    20    13    11   am
    21    26    27   ar
    22    21    22   ar
    23    17    19    2
    24     6     7   ar
    25     8     9   ar
    26    11    14    2
    27    23    27   ar
    28    18    20    1
    29    13    15    1
@<TRIPOS>MOLECULE
Molport-047-042-891 MCULE-9701418706 PubChem-132765288
 27 29 0 0 0
SMALL
GASTEIGER

@<TRIPOS>ATOM
      1 C          11.0925   39.9629   10.1420 C.3     1  UNL1        0.0729
      2 C          10.7410   40.8564   11.3040 C.3     1  UNL1        0.0191
      3 C          10.0756   42.0436   10.6651 C.3     1  UNL1        0.0235
      4 C           9.5835   41.5465    9.3140 C.3     1  UNL1        0.0991
      5 N          10.1096   40.2004    9.0937 N.3     1  UNL1       -0.2614
      6 C           8.0840   41.5324    9.2227 C.ar    1  UNL1        0.0819
      7 C           7.4253   41.0623    8.0844 C.ar    1  UNL1        0.0542
      8 C           5.9763   41.8552    9.9127 C.ar    1  UNL1        0.1652
      9 N           7.2805   41.9723   10.2322 N.ar    1  UNL1       -0.2269
     10 S           5.7732   41.2103    8.3824 S.2     1  UNL1       -0.0511
     11 C           3.9440   41.3269   11.3357 C.2     1  UNL1        0.2280
     12 C           2.8692   41.8526   12.2166 C.3     1  UNL1        0.0950
     13 N           4.8972   42.2334   10.7723 N.am    1  UNL1       -0.2641
     14 O           4.0007   40.0916   11.0972 O.2     1  UNL1       -0.2747
     15 H           4.8033   43.1883   10.9927 H       1  UNL1        0.1567
     16 C          10.8320   40.2193    7.8316 C.3     1  UNL1        0.1590
     17 C          11.9327   41.2189    7.8990 C.2     1  UNL1        0.2426
     18 N          13.2612   40.8241    7.5423 N.am    1  UNL1       -0.2806
     19 O          11.6862   42.3869    8.3005 O.2     1  UNL1       -0.2733
     20 H          13.3894   39.8989    7.2311 H       1  UNL1        0.1550
     21 C          14.4192   41.6640    7.6009 C.ar    1  UNL1        0.0848
     22 C          15.4970   41.5585    8.4592 C.ar    1  UNL1        0.1110
     23 C          14.6719   42.7456    6.7886 C.ar    1  UNL1        0.0938
     24 C          13.8016   43.2569    5.6951 C.3     1  UNL1        0.0553
     25 C          17.6023   42.8335    8.7811 C.3     1  UNL1        0.1538
     26 N          16.3336   42.5637    8.1316 N.ar    1  UNL1       -0.2464
     27 N          15.8542   43.2861    7.1300 N.ar    1  UNL1       -0.1723
@<TRIPOS>BOND
     1    21    18    1
     2    16    17    1
     3    16     5    1
     4     1     5    1
     5     1     2    1
     6     2     3    1
     7     3     4    1
     8     4     6    1
     9     4     5    1
    10     6     9   ar
    11     7    10   ar
    12     8    10   ar
    13     8    13    1
    14    12    11    1
    15    22    26   ar
    16    23    21   ar
    17    24    23    1
    18    25    26    1
    19    18    17   am
    20    13    11   am
    21    26    27   ar
    22    21    22   ar
    23    17    19    2
    24     6     7   ar
    25     8     9   ar
    26    11    14    2
    27    23    27   ar
    28    18    20    1
    29    13    15    1
@<TRIPOS>MOLECULE
Molport-047-042-891 MCULE-9701418706 PubChem-132765288
 27 29 0 0 0
SMALL
GASTEIGER

@<TRIPOS>ATOM
      1 C          10.9431   38.7701    9.7913 C.3     1  UNL1        0.0729
      2 C          11.2829   38.5962    8.3331 C.3     1  UNL1        0.0191
      3 C          11.9628   39.8840    7.9593 C.3     1  UNL1        0.0235
      4 C          12.4710   40.4628    9.2714 C.3     1  UNL1        0.0991
      5 N          11.9414   39.6581   10.3710 N.3     1  UNL1       -0.2614
      6 C          13.9715   40.4967    9.3370 C.ar    1  UNL1        0.0819
      7 C          14.6878   39.6157   10.1503 C.ar    1  UNL1        0.0542
      8 C          16.0382   41.2090    8.8432 C.ar    1  UNL1        0.1652
      9 N          14.7205   41.3785    8.6162 N.ar    1  UNL1       -0.2269
     10 S          16.3205   39.9738    9.9358 S.2     1  UNL1       -0.0511
     11 C          16.8538   43.1836    7.4757 C.2     1  UNL1        0.2280
     12 C          18.0176   43.8969    6.8888 C.3     1  UNL1        0.0950
     13 N          17.0702   41.9859    8.2283 N.am    1  UNL1       -0.2641
     14 O          15.6940   43.6428    7.3023 O.2     1  UNL1       -0.2747
     15 H          17.9981   41.6734    8.3305 H       1  UNL1        0.1567
     16 C          11.2365   40.5607   11.2674 C.3     1  UNL1        0.1590
     17 C          10.3122   41.4248   10.4838 C.2     1  UNL1        0.2426
     18 N           9.0258   40.9196   10.1123 N.am    1  UNL1       -0.2806
     19 O          10.6874   42.5739   10.1301 O.2     1  UNL1       -0.2733
     20 H           8.7883   40.0161   10.4231 H       1  UNL1        0.1550
     21 C           8.0558   41.6200    9.3259 C.ar    1  UNL1        0.0848
     22 C           8.2177   42.1502    8.0602 C.ar    1  UNL1        0.1110
     23 C           6.7586   41.8886    9.6983 C.ar    1  UNL1        0.0938
     24 C           6.1069   41.5092   10.9813 C.3     1  UNL1        0.0553
     25 C           6.7479   43.3804    6.4829 C.3     1  UNL1        0.1538
     26 N           7.0328   42.7048    7.7345 N.ar    1  UNL1       -0.2464
     27 N           6.1449   42.5564    8.7064 N.ar    1  UNL1       -0.1723
@<TRIPOS>BOND
     1    21    18    1
     2    16    17    1
     3    16     5    1
     4     1     5    1
     5     1     2    1
     6     2     3    1
     7     3     4    1
     8     4     6    1
     9     4     5    1
    10     6     9   ar
    11     7    10   ar
    12     8    10   ar
    13     8    13    1
    14    12    11    1
    15    22    26   ar
    16    23    21   ar
    17    24    23    1
    18    25    26    1
    19    18    17   am
    20    13    11   am
    21    26    27   ar
    22    21    22   ar
    23    17    19    2
    24     6     7   ar
    25     8     9   ar
    26    11    14    2
    27    23    27   ar
    28    18    20    1
    29    13    15    1
