@<TRIPOS>MOLECULE
Molport-000-127-861 PubChem-6496806 ZINC000006677846
 21 22 0 0 0
SMALL
GASTEIGER

@<TRIPOS>ATOM
      1 C           9.9944   40.7127    5.3860 C.3     1  UNL1        0.0528
      2 C          10.9975   41.4060    6.2425 C.ar    1  UNL1        0.0704
      3 C          10.7562   41.8114    7.5623 C.ar    1  UNL1        0.0845
      4 C          13.0056   42.2933    6.7031 C.ar    1  UNL1        0.1678
      5 S          12.1669   42.5441    8.1331 S.2     1  UNL1       -0.0484
      6 N          12.2471   41.6701    5.7758 N.ar    1  UNL1       -0.2281
      7 C          14.7678   43.8668    5.7736 C.2     1  UNL1        0.4069
      8 N          14.3617   42.6991    6.4943 N.am    1  UNL1       -0.2298
      9 O          13.9101   44.6363    5.2592 O.2     1  UNL1       -0.2260
     10 H          15.0698   42.1314    6.8757 H       1  UNL1        0.1601
     11 C          17.0034   44.1346    6.7656 C.3     1  UNL1        0.2574
     12 O          16.1291   44.1431    5.6472 O.3     1  UNL1       -0.4303
     13 C           9.4747   41.7013    8.3016 C.2     1  UNL1        0.2027
     14 O           8.3950   41.7382    7.6507 O.2     1  UNL1       -0.2860
     15 C           9.4091   41.5597    9.7750 C.ar    1  UNL1        0.0396
     16 C           8.2036   41.8227   10.4450 C.ar    1  UNL1        0.0041
     17 C           8.1125   41.6705   11.8315 C.ar    1  UNL1        0.0115
     18 C           9.2252   41.2466   12.5617 C.ar    1  UNL1        0.0577
     19 C          10.4265   40.9698   11.9053 C.ar    1  UNL1        0.0115
     20 C          10.5159   41.1224   10.5191 C.ar    1  UNL1        0.0041
     21 CL          9.1122   41.0565   14.2978 Cl      1  UNL1       -0.0822
@<TRIPOS>BOND
     1     1     2    1
     2     2     6   ar
     3     3     5   ar
     4     3    13    1
     5     4     5   ar
     6     4     8    1
     7     7    12    1
     8    11    12    1
     9    13    15    1
    10    16    17   ar
    11    18    19   ar
    12    18    21    1
    13    20    15   ar
    14     8     7   am
    15     2     3   ar
    16     4     6   ar
    17     7     9    2
    18    13    14    2
    19    15    16   ar
    20    17    18   ar
    21    19    20   ar
    22     8    10    1
@<TRIPOS>MOLECULE
Molport-000-127-861 PubChem-6496806 ZINC000006677846
 21 22 0 0 0
SMALL
GASTEIGER

@<TRIPOS>ATOM
      1 C          11.5851   39.0414    7.5485 C.3     1  UNL1        0.0528
      2 C          11.3101   40.1596    8.4941 C.ar    1  UNL1        0.0704
      3 C          11.5390   41.5106    8.1998 C.ar    1  UNL1        0.0845
      4 C          10.6032   41.0576   10.4244 C.ar    1  UNL1        0.1678
      5 S          11.0813   42.4091    9.5548 S.2     1  UNL1       -0.0484
      6 N          10.7856   39.9169    9.7251 N.ar    1  UNL1       -0.2281
      7 C           8.7101   41.4079   12.0794 C.2     1  UNL1        0.4069
      8 N          10.0714   41.1126   11.7516 N.am    1  UNL1       -0.2298
      9 O           7.8671   41.6475   11.1716 O.2     1  UNL1       -0.2260
     10 H          10.6896   40.9335   12.4966 H       1  UNL1        0.1601
     11 C           9.2300   41.0915   14.4634 C.3     1  UNL1        0.2574
     12 O           8.3273   41.4275   13.4205 O.3     1  UNL1       -0.4303
     13 C          12.1518   42.0554    6.9633 C.2     1  UNL1        0.2027
     14 O          11.4484   42.1249    5.9188 O.2     1  UNL1       -0.2860
     15 C          13.5598   42.5128    6.9010 C.ar    1  UNL1        0.0396
     16 C          13.9029   43.5934    6.0730 C.ar    1  UNL1        0.0041
     17 C          15.2203   44.0577    6.0186 C.ar    1  UNL1        0.0115
     18 C          16.2072   43.4496    6.7978 C.ar    1  UNL1        0.0577
     19 C          15.8761   42.3818    7.6349 C.ar    1  UNL1        0.0115
     20 C          14.5586   41.9189    7.6882 C.ar    1  UNL1        0.0041
     21 CL         17.8571   44.0297    6.7298 Cl      1  UNL1       -0.0822
@<TRIPOS>BOND
     1     1     2    1
     2     2     6   ar
     3     3     5   ar
     4     3    13    1
     5     4     5   ar
     6     4     8    1
     7     7    12    1
     8    11    12    1
     9    13    15    1
    10    16    17   ar
    11    18    19   ar
    12    18    21    1
    13    20    15   ar
    14     8     7   am
    15     2     3   ar
    16     4     6   ar
    17     7     9    2
    18    13    14    2
    19    15    16   ar
    20    17    18   ar
    21    19    20   ar
    22     8    10    1
@<TRIPOS>MOLECULE
Molport-000-127-861 PubChem-6496806 ZINC000006677846
 21 22 0 0 0
SMALL
GASTEIGER

@<TRIPOS>ATOM
      1 C          10.3814   41.2951    5.3311 C.3     1  UNL1        0.0528
      2 C          11.5611   41.4478    6.2285 C.ar    1  UNL1        0.0704
      3 C          11.6656   40.8564    7.4948 C.ar    1  UNL1        0.0845
      4 C          13.6042   42.1869    6.7866 C.ar    1  UNL1        0.1678
      5 S          13.1635   41.2981    8.1383 S.2     1  UNL1       -0.0484
      6 N          12.6409   42.1775    5.8402 N.ar    1  UNL1       -0.2281
      7 C          15.0211   44.1633    6.0576 C.2     1  UNL1        0.4069
      8 N          14.8517   42.8761    6.6595 N.am    1  UNL1       -0.2298
      9 O          14.0321   44.7876    5.5841 O.2     1  UNL1       -0.2260
     10 H          15.6551   42.4305    7.0133 H       1  UNL1        0.1601
     11 C          17.4489   43.9321    5.7312 C.3     1  UNL1        0.2574
     12 O          16.2990   44.7196    6.0014 O.3     1  UNL1       -0.4303
     13 C          10.6235   40.0602    8.1885 C.2     1  UNL1        0.2027
     14 O          10.8568   38.8468    8.4414 O.2     1  UNL1       -0.2860
     15 C           9.3147   40.6283    8.5884 C.ar    1  UNL1        0.0396
     16 C           9.2276   41.4299    9.7377 C.ar    1  UNL1        0.0041
     17 C           8.0082   41.9970   10.1187 C.ar    1  UNL1        0.0115
     18 C           6.8639   41.7733    9.3496 C.ar    1  UNL1        0.0577
     19 C           6.9401   40.9880    8.1971 C.ar    1  UNL1        0.0115
     20 C           8.1601   40.4218    7.8175 C.ar    1  UNL1        0.0041
     21 CL          5.3364   42.4823    9.8263 Cl      1  UNL1       -0.0822
@<TRIPOS>BOND
     1     1     2    1
     2     2     6   ar
     3     3     5   ar
     4     3    13    1
     5     4     5   ar
     6     4     8    1
     7     7    12    1
     8    11    12    1
     9    13    15    1
    10    16    17   ar
    11    18    19   ar
    12    18    21    1
    13    20    15   ar
    14     8     7   am
    15     2     3   ar
    16     4     6   ar
    17     7     9    2
    18    13    14    2
    19    15    16   ar
    20    17    18   ar
    21    19    20   ar
    22     8    10    1
@<TRIPOS>MOLECULE
Molport-000-127-861 PubChem-6496806 ZINC000006677846
 21 22 0 0 0
SMALL
GASTEIGER

@<TRIPOS>ATOM
      1 C          10.5947   40.4581    4.8654 C.3     1  UNL1        0.0528
      2 C          11.2536   41.1656    5.9993 C.ar    1  UNL1        0.0704
      3 C          10.6753   41.3276    7.2656 C.ar    1  UNL1        0.0845
      4 C          12.9234   42.2795    7.0009 C.ar    1  UNL1        0.1678
      5 S          11.7772   42.1802    8.2205 S.2     1  UNL1       -0.0484
      6 N          12.5011   41.6893    5.8620 N.ar    1  UNL1       -0.2281
      7 C          14.6350   44.0573    6.4050 C.2     1  UNL1        0.4069
      8 N          14.1938   42.9200    7.1531 N.am    1  UNL1       -0.2298
      9 O          13.8914   44.5796    5.5295 O.2     1  UNL1       -0.2260
     10 H          14.8119   42.5497    7.8240 H       1  UNL1        0.1601
     11 C          17.0634   44.0841    6.0099 C.3     1  UNL1        0.2574
     12 O          15.9025   44.5818    6.6579 O.3     1  UNL1       -0.4303
     13 C           9.3126   40.9089    7.6763 C.2     1  UNL1        0.2027
     14 O           9.1317   39.7176    8.0489 O.2     1  UNL1       -0.2860
     15 C           8.1517   41.8294    7.6578 C.ar    1  UNL1        0.0396
     16 C           7.3561   41.9670    8.8064 C.ar    1  UNL1        0.0041
     17 C           6.2717   42.8489    8.8192 C.ar    1  UNL1        0.0115
     18 C           5.9760   43.6080    7.6846 C.ar    1  UNL1        0.0577
     19 C           6.7675   43.4894    6.5399 C.ar    1  UNL1        0.0115
     20 C           7.8513   42.6073    6.5288 C.ar    1  UNL1        0.0041
     21 CL          4.6180   44.7119    7.6994 Cl      1  UNL1       -0.0822
@<TRIPOS>BOND
     1     1     2    1
     2     2     6   ar
     3     3     5   ar
     4     3    13    1
     5     4     5   ar
     6     4     8    1
     7     7    12    1
     8    11    12    1
     9    13    15    1
    10    16    17   ar
    11    18    19   ar
    12    18    21    1
    13    20    15   ar
    14     8     7   am
    15     2     3   ar
    16     4     6   ar
    17     7     9    2
    18    13    14    2
    19    15    16   ar
    20    17    18   ar
    21    19    20   ar
    22     8    10    1
@<TRIPOS>MOLECULE
Molport-000-127-861 PubChem-6496806 ZINC000006677846
 21 22 0 0 0
SMALL
GASTEIGER

@<TRIPOS>ATOM
      1 C          12.0979   40.1209   11.0170 C.3     1  UNL1        0.0528
      2 C          13.4208   39.5535   10.6319 C.ar    1  UNL1        0.0704
      3 C          13.9806   39.6662    9.3520 C.ar    1  UNL1        0.0845
      4 C          15.3472   38.4649   11.0010 C.ar    1  UNL1        0.1678
      5 S          15.4764   38.8823    9.3822 S.2     1  UNL1       -0.0484
      6 N          14.1861   38.8929   11.5415 N.ar    1  UNL1       -0.2281
      7 C          17.4345   37.0243   11.1153 C.2     1  UNL1        0.4069
      8 N          16.3490   37.7365   11.7172 N.am    1  UNL1       -0.2298
      9 O          17.5711   36.9996    9.8611 O.2     1  UNL1       -0.2260
     10 H          16.2868   37.7244   12.6997 H       1  UNL1        0.1601
     11 C          19.5475   35.8036   11.4300 C.3     1  UNL1        0.2574
     12 O          18.3418   36.3556   11.9369 O.3     1  UNL1       -0.4303
     13 C          13.3467   40.2815    8.1600 C.2     1  UNL1        0.2027
     14 O          12.3542   39.7054    7.6367 O.2     1  UNL1       -0.2860
     15 C          13.8371   41.5404    7.5516 C.ar    1  UNL1        0.0396
     16 C          15.1315   41.9965    7.8472 C.ar    1  UNL1        0.0041
     17 C          15.6236   43.1678    7.2643 C.ar    1  UNL1        0.0115
     18 C          14.8276   43.8917    6.3736 C.ar    1  UNL1        0.0577
     19 C          13.5427   43.4417    6.0617 C.ar    1  UNL1        0.0115
     20 C          13.0523   42.2704    6.6453 C.ar    1  UNL1        0.0041
     21 CL         15.4425   45.3588    5.6438 Cl      1  UNL1       -0.0822
@<TRIPOS>BOND
     1     1     2    1
     2     2     6   ar
     3     3     5   ar
     4     3    13    1
     5     4     5   ar
     6     4     8    1
     7     7    12    1
     8    11    12    1
     9    13    15    1
    10    16    17   ar
    11    18    19   ar
    12    18    21    1
    13    20    15   ar
    14     8     7   am
    15     2     3   ar
    16     4     6   ar
    17     7     9    2
    18    13    14    2
    19    15    16   ar
    20    17    18   ar
    21    19    20   ar
    22     8    10    1
@<TRIPOS>MOLECULE
Molport-000-127-861 PubChem-6496806 ZINC000006677846
 21 22 0 0 0
SMALL
GASTEIGER

@<TRIPOS>ATOM
      1 C          10.7554   40.3645    4.5150 C.3     1  UNL1        0.0528
      2 C          10.0785   40.9198    5.7207 C.ar    1  UNL1        0.0704
      3 C          10.7108   41.1135    6.9564 C.ar    1  UNL1        0.0845
      4 C           8.3499   41.7820    6.8611 C.ar    1  UNL1        0.1678
      5 S           9.5657   41.7615    8.0155 S.2     1  UNL1       -0.0484
      6 N           8.7732   41.2983    5.6735 N.ar    1  UNL1       -0.2281
      7 C           6.6958   43.4981    7.7355 C.2     1  UNL1        0.4069
      8 N           7.0219   42.2517    7.1124 N.am    1  UNL1       -0.2298
      9 O           7.6060   44.2855    8.1147 O.2     1  UNL1       -0.2260
     10 H           6.2752   41.6730    6.8354 H       1  UNL1        0.1601
     11 C           4.5900   43.3046    8.9931 C.3     1  UNL1        0.2574
     12 O           5.3537   43.8309    7.9184 O.3     1  UNL1       -0.4303
     13 C          12.1036   40.7404    7.3059 C.2     1  UNL1        0.2027
     14 O          12.3228   39.5902    7.7747 O.2     1  UNL1       -0.2860
     15 C          13.2479   41.6663    7.1365 C.ar    1  UNL1        0.0396
     16 C          14.4260   41.4559    7.8705 C.ar    1  UNL1        0.0041
     17 C          15.5267   42.3019    7.7071 C.ar    1  UNL1        0.0115
     18 C          15.4624   43.3638    6.8020 C.ar    1  UNL1        0.0577
     19 C          14.3004   43.5762    6.0567 C.ar    1  UNL1        0.0115
     20 C          13.2009   42.7294    6.2213 C.ar    1  UNL1        0.0041
     21 CL         16.8397   44.4240    6.5973 Cl      1  UNL1       -0.0822
@<TRIPOS>BOND
     1     1     2    1
     2     2     6   ar
     3     3     5   ar
     4     3    13    1
     5     4     5   ar
     6     4     8    1
     7     7    12    1
     8    11    12    1
     9    13    15    1
    10    16    17   ar
    11    18    19   ar
    12    18    21    1
    13    20    15   ar
    14     8     7   am
    15     2     3   ar
    16     4     6   ar
    17     7     9    2
    18    13    14    2
    19    15    16   ar
    20    17    18   ar
    21    19    20   ar
    22     8    10    1
@<TRIPOS>MOLECULE
Molport-000-127-861 PubChem-6496806 ZINC000006677846
 21 22 0 0 0
SMALL
GASTEIGER

@<TRIPOS>ATOM
      1 C          11.2963   41.3451    9.9638 C.3     1  UNL1        0.0528
      2 C          11.7869   41.5472    8.5714 C.ar    1  UNL1        0.0704
      3 C          11.0144   41.3140    7.4255 C.ar    1  UNL1        0.0845
      4 C          13.2948   42.1271    7.0151 C.ar    1  UNL1        0.1678
      5 S          11.9744   41.6783    6.0844 S.2     1  UNL1       -0.0484
      6 N          13.0462   42.0036    8.3367 N.ar    1  UNL1       -0.2281
      7 C          14.7150   43.7935    5.7299 C.2     1  UNL1        0.4069
      8 N          14.5368   42.5805    6.4680 N.am    1  UNL1       -0.2298
      9 O          13.7393   44.5634    5.5120 O.2     1  UNL1       -0.2260
     10 H          15.3296   42.0144    6.6102 H       1  UNL1        0.1601
     11 C          17.1465   43.9751    6.0594 C.3     1  UNL1        0.2574
     12 O          15.9862   44.1135    5.2533 O.3     1  UNL1       -0.4303
     13 C           9.6368   40.7648    7.3836 C.2     1  UNL1        0.2027
     14 O           9.4819   39.5358    7.1462 O.2     1  UNL1       -0.2860
     15 C           8.4334   41.6019    7.5994 C.ar    1  UNL1        0.0396
     16 C           7.9833   42.4484    6.5738 C.ar    1  UNL1        0.0041
     17 C           6.8356   43.2274    6.7466 C.ar    1  UNL1        0.0115
     18 C           6.1220   43.1622    7.9455 C.ar    1  UNL1        0.0577
     19 C           6.5525   42.3146    8.9688 C.ar    1  UNL1        0.0115
     20 C           7.7001   41.5365    8.7943 C.ar    1  UNL1        0.0041
     21 CL          4.6853   44.1378    8.1631 Cl      1  UNL1       -0.0822
@<TRIPOS>BOND
     1     1     2    1
     2     2     6   ar
     3     3     5   ar
     4     3    13    1
     5     4     5   ar
     6     4     8    1
     7     7    12    1
     8    11    12    1
     9    13    15    1
    10    16    17   ar
    11    18    19   ar
    12    18    21    1
    13    20    15   ar
    14     8     7   am
    15     2     3   ar
    16     4     6   ar
    17     7     9    2
    18    13    14    2
    19    15    16   ar
    20    17    18   ar
    21    19    20   ar
    22     8    10    1
@<TRIPOS>MOLECULE
Molport-000-127-861 PubChem-6496806 ZINC000006677846
 21 22 0 0 0
SMALL
GASTEIGER

@<TRIPOS>ATOM
      1 C          10.2961   39.8810    4.1364 C.3     1  UNL1        0.0528
      2 C          10.7102   40.6929    5.3153 C.ar    1  UNL1        0.0704
      3 C           9.8346   41.1119    6.3262 C.ar    1  UNL1        0.0845
      4 C          12.1792   41.7833    6.6134 C.ar    1  UNL1        0.1678
      5 S          10.7396   41.9941    7.4468 S.2     1  UNL1       -0.0484
      6 N          12.0079   41.0626    5.4843 N.ar    1  UNL1       -0.2281
      7 C          14.0572   43.4892    6.5246 C.2     1  UNL1        0.4069
      8 N          13.4354   42.3118    7.0489 N.am    1  UNL1       -0.2298
      9 O          13.5040   44.1545    5.6061 O.2     1  UNL1       -0.2260
     10 H          13.9084   41.8283    7.7643 H       1  UNL1        0.1601
     11 C          16.2376   42.9575    7.5331 C.3     1  UNL1        0.2574
     12 O          15.2873   43.8921    7.0445 O.3     1  UNL1       -0.4303
     13 C           8.3668   40.9006    6.3694 C.2     1  UNL1        0.2027
     14 O           7.7706   40.5737    5.3071 O.2     1  UNL1       -0.2860
     15 C           7.5692   41.0670    7.6069 C.ar    1  UNL1        0.0396
     16 C           8.2213   41.3130    8.8256 C.ar    1  UNL1        0.0041
     17 C           7.4872   41.4988   10.0005 C.ar    1  UNL1        0.0115
     18 C           6.0917   41.4472    9.9670 C.ar    1  UNL1        0.0577
     19 C           5.4308   41.2157    8.7586 C.ar    1  UNL1        0.0115
     20 C           6.1663   41.0302    7.5849 C.ar    1  UNL1        0.0041
     21 CL          5.1717   41.6790   11.4377 Cl      1  UNL1       -0.0822
@<TRIPOS>BOND
     1     1     2    1
     2     2     6   ar
     3     3     5   ar
     4     3    13    1
     5     4     5   ar
     6     4     8    1
     7     7    12    1
     8    11    12    1
     9    13    15    1
    10    16    17   ar
    11    18    19   ar
    12    18    21    1
    13    20    15   ar
    14     8     7   am
    15     2     3   ar
    16     4     6   ar
    17     7     9    2
    18    13    14    2
    19    15    16   ar
    20    17    18   ar
    21    19    20   ar
    22     8    10    1
@<TRIPOS>MOLECULE
Molport-000-127-861 PubChem-6496806 ZINC000006677846
 21 22 0 0 0
SMALL
GASTEIGER

@<TRIPOS>ATOM
      1 C          10.4573   40.6276    4.6214 C.3     1  UNL1        0.0528
      2 C           9.9297   41.1872    5.8977 C.ar    1  UNL1        0.0704
      3 C          10.6638   41.2499    7.0899 C.ar    1  UNL1        0.0845
      4 C           8.3874   42.1642    7.2011 C.ar    1  UNL1        0.1678
      5 S           9.6715   41.9577    8.2593 S.2     1  UNL1       -0.0484
      6 N           8.6725   41.7013    5.9650 N.ar    1  UNL1       -0.2281
      7 C           6.9932   43.9589    8.3327 C.2     1  UNL1        0.4069
      8 N           7.1384   42.7558    7.5715 N.am    1  UNL1       -0.2298
      9 O           8.0077   44.5909    8.7371 O.2     1  UNL1       -0.2260
     10 H           6.3157   42.3002    7.2804 H       1  UNL1        0.1601
     11 C           4.6668   43.5481    9.0203 C.3     1  UNL1        0.2574
     12 O           5.7106   44.4242    8.6224 O.3     1  UNL1       -0.4303
     13 C          12.0293   40.7165    7.3175 C.2     1  UNL1        0.2027
     14 O          12.1597   39.5045    7.6413 O.2     1  UNL1       -0.2860
     15 C          13.2472   41.5507    7.1899 C.ar    1  UNL1        0.0396
     16 C          13.2790   42.5942    6.2512 C.ar    1  UNL1        0.0041
     17 C          14.4079   43.4098    6.1321 C.ar    1  UNL1        0.0115
     18 C          15.5149   43.1940    6.9561 C.ar    1  UNL1        0.0577
     19 C          15.4908   42.1670    7.9024 C.ar    1  UNL1        0.0115
     20 C          14.3613   41.3526    8.0203 C.ar    1  UNL1        0.0041
     21 CL         16.9292   44.2141    6.8072 Cl      1  UNL1       -0.0822
@<TRIPOS>BOND
     1     1     2    1
     2     2     6   ar
     3     3     5   ar
     4     3    13    1
     5     4     5   ar
     6     4     8    1
     7     7    12    1
     8    11    12    1
     9    13    15    1
    10    16    17   ar
    11    18    19   ar
    12    18    21    1
    13    20    15   ar
    14     8     7   am
    15     2     3   ar
    16     4     6   ar
    17     7     9    2
    18    13    14    2
    19    15    16   ar
    20    17    18   ar
    21    19    20   ar
    22     8    10    1
@<TRIPOS>MOLECULE
Molport-000-127-861 PubChem-6496806 ZINC000006677846
 21 22 0 0 0
SMALL
GASTEIGER

@<TRIPOS>ATOM
      1 C          10.9332   37.4650    9.5547 C.3     1  UNL1        0.0528
      2 C          12.2012   38.2219    9.7534 C.ar    1  UNL1        0.0704
      3 C          12.2621   39.5438   10.2151 C.ar    1  UNL1        0.0845
      4 C          14.4291   38.4841    9.7554 C.ar    1  UNL1        0.1678
      5 S          13.8920   39.9811   10.2864 S.2     1  UNL1       -0.0484
      6 N          13.4052   37.6394    9.5073 N.ar    1  UNL1       -0.2281
      7 C          16.6664   37.6406   10.6088 C.2     1  UNL1        0.4069
      8 N          15.8094   38.1497    9.5820 N.am    1  UNL1       -0.2298
      9 O          16.2287   37.4516   11.7772 O.2     1  UNL1       -0.2260
     10 H          16.1997   38.2798    8.6876 H       1  UNL1        0.1601
     11 C          18.9573   38.3820   10.1030 C.3     1  UNL1        0.2574
     12 O          17.9962   37.3557   10.2991 O.3     1  UNL1       -0.4303
     13 C          11.1110   40.4333   10.5065 C.2     1  UNL1        0.2027
     14 O          10.8647   40.7311   11.7071 O.2     1  UNL1       -0.2860
     15 C          10.2316   40.9793    9.4463 C.ar    1  UNL1        0.0396
     16 C           8.9508   41.4479    9.7796 C.ar    1  UNL1        0.0041
     17 C           8.1146   41.9907    8.7997 C.ar    1  UNL1        0.0115
     18 C           8.5542   42.0765    7.4767 C.ar    1  UNL1        0.0577
     19 C           9.8310   41.6253    7.1348 C.ar    1  UNL1        0.0115
     20 C          10.6657   41.0830    8.1157 C.ar    1  UNL1        0.0041
     21 CL          7.5077   42.7552    6.2489 Cl      1  UNL1       -0.0822
@<TRIPOS>BOND
     1     1     2    1
     2     2     6   ar
     3     3     5   ar
     4     3    13    1
     5     4     5   ar
     6     4     8    1
     7     7    12    1
     8    11    12    1
     9    13    15    1
    10    16    17   ar
    11    18    19   ar
    12    18    21    1
    13    20    15   ar
    14     8     7   am
    15     2     3   ar
    16     4     6   ar
    17     7     9    2
    18    13    14    2
    19    15    16   ar
    20    17    18   ar
    21    19    20   ar
    22     8    10    1
