@<TRIPOS>MOLECULE
Molport-046-951-091 MCULE-8395810544 MCULE-9977033632 PubChem-110089563
 22 24 0 0 0
SMALL
GASTEIGER

@<TRIPOS>ATOM
      1 C          14.9290   40.2285    9.7233 C.ar    1  UNL1        0.1328
      2 C          15.1804   39.3606   10.7947 C.ar    1  UNL1        0.0344
      3 C          14.1338   38.9790   11.6339 C.ar    1  UNL1        0.0041
      4 C          12.8470   39.4629   11.4014 C.ar    1  UNL1        0.0149
      5 C          12.6244   40.3294   10.3226 C.ar    1  UNL1        0.0614
      6 N          13.6633   40.6859    9.5192 N.ar    1  UNL1       -0.2348
      7 C          11.2606   40.8729   10.0360 C.3     1  UNL1        0.0561
      8 C          11.3348   42.3307    9.5817 C.3     1  UNL1        0.0087
      9 C           9.9314   42.8917    9.3772 C.3     1  UNL1        0.0175
     10 C           9.1045   42.6747   10.6424 C.3     1  UNL1        0.0686
     11 C          10.3488   40.7474   11.2587 C.3     1  UNL1        0.0745
     12 N           9.0121   41.2466   10.9410 N.3     1  UNL1       -0.2971
     13 H           8.6436   40.7494   10.1302 H       1  UNL1        0.1233
     14 N          15.9694   40.6519    8.8307 N.pl3   1  UNL1       -0.2834
     15 H          16.6712   39.9900    8.6346 H       1  UNL1        0.1550
     16 C          14.2583   44.0394    5.7270 C.3     1  UNL1        0.0521
     17 C          15.2959   43.5890    6.6905 C.ar    1  UNL1        0.0608
     18 C          16.1046   41.9285    8.1914 C.ar    1  UNL1        0.1328
     19 C          17.2151   42.7220    8.4917 C.ar    1  UNL1        0.0344
     20 C          17.3571   43.9664    7.8755 C.ar    1  UNL1        0.0041
     21 C          16.3930   44.4068    6.9678 C.ar    1  UNL1        0.0148
     22 N          15.1760   42.3798    7.3017 N.ar    1  UNL1       -0.2349
@<TRIPOS>BOND
     1    16    17    1
     2    18    22   ar
     3    18    14    1
     4    19    20   ar
     5    21    17   ar
     6     1     6   ar
     7     2     3   ar
     8     4     5   ar
     9     7     5    1
    10     7     8    1
    11     8     9    1
    12     9    10    1
    13    10    12    1
    14    11    12    1
    15    11     7    1
    16    14     1    1
    17    17    22   ar
    18    18    19   ar
    19    20    21   ar
    20     1     2   ar
    21     3     4   ar
    22     5     6   ar
    23    14    15    1
    24    12    13    1
@<TRIPOS>MOLECULE
Molport-046-951-091 MCULE-8395810544 MCULE-9977033632 PubChem-110089563
 22 24 0 0 0
SMALL
GASTEIGER

@<TRIPOS>ATOM
      1 C          14.4057   40.4898    9.2806 C.ar    1  UNL1        0.1328
      2 C          14.1001   39.9329   10.5299 C.ar    1  UNL1        0.0344
      3 C          12.7755   39.6317   10.8457 C.ar    1  UNL1        0.0041
      4 C          11.7664   39.8862    9.9179 C.ar    1  UNL1        0.0149
      5 C          12.1007   40.4435    8.6761 C.ar    1  UNL1        0.0614
      6 N          13.4011   40.7280    8.3935 N.ar    1  UNL1       -0.2348
      7 C          11.0510   40.7335    7.6508 C.3     1  UNL1        0.0561
      8 C          10.5198   39.4422    7.0283 C.3     1  UNL1        0.0087
      9 C           9.5142   39.7619    5.9271 C.3     1  UNL1        0.0175
     10 C          10.1443   40.7243    4.9230 C.3     1  UNL1        0.0686
     11 C          11.5876   41.6629    6.5597 C.3     1  UNL1        0.0745
     12 N          10.5325   41.9640    5.5937 N.3     1  UNL1       -0.2971
     13 H           9.7265   42.3595    6.0777 H       1  UNL1        0.1233
     14 N          15.7511   40.8183    8.9059 N.pl3   1  UNL1       -0.2834
     15 H          16.4409   40.1529    9.1312 H       1  UNL1        0.1550
     16 C          15.1324   44.2447    5.4543 C.3     1  UNL1        0.0521
     17 C          15.9301   43.6798    6.5735 C.ar    1  UNL1        0.0608
     18 C          16.2068   42.0043    8.2409 C.ar    1  UNL1        0.1328
     19 C          17.3967   42.6031    8.6638 C.ar    1  UNL1        0.0344
     20 C          17.8498   43.7579    8.0239 C.ar    1  UNL1        0.0041
     21 C          17.1144   44.3033    6.9708 C.ar    1  UNL1        0.0148
     22 N          15.5057   42.5552    7.2102 N.ar    1  UNL1       -0.2349
@<TRIPOS>BOND
     1    16    17    1
     2    18    22   ar
     3    18    14    1
     4    19    20   ar
     5    21    17   ar
     6     1     6   ar
     7     2     3   ar
     8     4     5   ar
     9     7     5    1
    10     7     8    1
    11     8     9    1
    12     9    10    1
    13    10    12    1
    14    11    12    1
    15    11     7    1
    16    14     1    1
    17    17    22   ar
    18    18    19   ar
    19    20    21   ar
    20     1     2   ar
    21     3     4   ar
    22     5     6   ar
    23    14    15    1
    24    12    13    1
@<TRIPOS>MOLECULE
Molport-046-951-091 MCULE-8395810544 MCULE-9977033632 PubChem-110089563
 22 24 0 0 0
SMALL
GASTEIGER

@<TRIPOS>ATOM
      1 C          13.0681   41.1154    8.4686 C.ar    1  UNL1        0.1328
      2 C          13.7917   40.1587    9.1935 C.ar    1  UNL1        0.0344
      3 C          13.3360   39.7534   10.4477 C.ar    1  UNL1        0.0041
      4 C          12.1657   40.3019   10.9708 C.ar    1  UNL1        0.0149
      5 C          11.4621   41.2567   10.2240 C.ar    1  UNL1        0.0614
      6 N          11.9289   41.6346    9.0029 N.ar    1  UNL1       -0.2348
      7 C          10.2025   41.8717   10.7459 C.3     1  UNL1        0.0561
      8 C           9.6619   41.0861   11.9408 C.3     1  UNL1        0.0087
      9 C           8.3344   41.6772   12.4040 C.3     1  UNL1        0.0175
     10 C           7.3701   41.7566   11.2229 C.3     1  UNL1        0.0686
     11 C           9.1381   41.9631    9.6500 C.3     1  UNL1        0.0745
     12 N           7.9331   42.6043   10.1732 N.3     1  UNL1       -0.2971
     13 H           8.1705   43.5177   10.5600 H       1  UNL1        0.1233
     14 N          13.4931   41.5667    7.1748 N.pl3   1  UNL1       -0.2834
     15 H          13.1216   41.0840    6.4013 H       1  UNL1        0.1550
     16 C          17.7861   43.8174    7.9101 C.3     1  UNL1        0.0521
     17 C          16.4735   43.7521    7.2169 C.ar    1  UNL1        0.0608
     18 C          14.3966   42.6402    6.8785 C.ar    1  UNL1        0.1328
     19 C          14.0185   43.6042    5.9399 C.ar    1  UNL1        0.0344
     20 C          14.8900   44.6535    5.6436 C.ar    1  UNL1        0.0041
     21 C          16.1271   44.7318    6.2843 C.ar    1  UNL1        0.0148
     22 N          15.6100   42.7376    7.4914 N.ar    1  UNL1       -0.2349
@<TRIPOS>BOND
     1    16    17    1
     2    18    22   ar
     3    18    14    1
     4    19    20   ar
     5    21    17   ar
     6     1     6   ar
     7     2     3   ar
     8     4     5   ar
     9     7     5    1
    10     7     8    1
    11     8     9    1
    12     9    10    1
    13    10    12    1
    14    11    12    1
    15    11     7    1
    16    14     1    1
    17    17    22   ar
    18    18    19   ar
    19    20    21   ar
    20     1     2   ar
    21     3     4   ar
    22     5     6   ar
    23    14    15    1
    24    12    13    1
@<TRIPOS>MOLECULE
Molport-046-951-091 MCULE-8395810544 MCULE-9977033632 PubChem-110089563
 22 24 0 0 0
SMALL
GASTEIGER

@<TRIPOS>ATOM
      1 C          13.6275   40.7623    8.7089 C.ar    1  UNL1        0.1328
      2 C          12.4487   40.7479    9.4669 C.ar    1  UNL1        0.0344
      3 C          12.4464   40.1525   10.7280 C.ar    1  UNL1        0.0041
      4 C          13.6149   39.5767   11.2250 C.ar    1  UNL1        0.0149
      5 C          14.7794   39.6056   10.4456 C.ar    1  UNL1        0.0614
      6 N          14.7541   40.1929    9.2183 N.ar    1  UNL1       -0.2348
      7 C          16.0552   39.0001   10.9386 C.3     1  UNL1        0.0561
      8 C          17.2671   39.6699   10.2909 C.3     1  UNL1        0.0087
      9 C          18.5526   38.9830   10.7403 C.3     1  UNL1        0.0175
     10 C          18.4519   37.4834   10.4715 C.3     1  UNL1        0.0686
     11 C          16.0857   37.4919   10.6804 C.3     1  UNL1        0.0745
     12 N          17.3224   36.9177   11.2074 N.3     1  UNL1       -0.2971
     13 H          17.4106   37.1431   12.1983 H       1  UNL1        0.1233
     14 N          13.6839   41.3613    7.4065 N.pl3   1  UNL1       -0.2834
     15 H          13.1268   40.9436    6.7104 H       1  UNL1        0.1550
     16 C          17.8149   43.9879    7.6752 C.3     1  UNL1        0.0521
     17 C          16.4531   43.7916    7.1141 C.ar    1  UNL1        0.0608
     18 C          14.4583   42.4985    7.0019 C.ar    1  UNL1        0.1328
     19 C          13.9102   43.3994    6.0848 C.ar    1  UNL1        0.0344
     20 C          14.6549   44.5098    5.6837 C.ar    1  UNL1        0.0041
     21 C          15.9358   44.7111    6.1996 C.ar    1  UNL1        0.0148
     22 N          15.7113   42.7160    7.4919 N.ar    1  UNL1       -0.2349
@<TRIPOS>BOND
     1    16    17    1
     2    18    22   ar
     3    18    14    1
     4    19    20   ar
     5    21    17   ar
     6     1     6   ar
     7     2     3   ar
     8     4     5   ar
     9     7     5    1
    10     7     8    1
    11     8     9    1
    12     9    10    1
    13    10    12    1
    14    11    12    1
    15    11     7    1
    16    14     1    1
    17    17    22   ar
    18    18    19   ar
    19    20    21   ar
    20     1     2   ar
    21     3     4   ar
    22     5     6   ar
    23    14    15    1
    24    12    13    1
@<TRIPOS>MOLECULE
Molport-046-951-091 MCULE-8395810544 MCULE-9977033632 PubChem-110089563
 22 24 0 0 0
SMALL
GASTEIGER

@<TRIPOS>ATOM
      1 C          12.1415   41.6229    7.0582 C.ar    1  UNL1        0.1328
      2 C          11.3359   41.4419    5.9257 C.ar    1  UNL1        0.0344
      3 C           9.9480   41.4991    6.0498 C.ar    1  UNL1        0.0041
      4 C           9.3726   41.7355    7.2976 C.ar    1  UNL1        0.0149
      5 C          10.2023   41.9131    8.4131 C.ar    1  UNL1        0.0614
      6 N          11.5535   41.8523    8.2643 N.ar    1  UNL1       -0.2348
      7 C           9.6286   42.1688    9.7706 C.3     1  UNL1        0.0561
      8 C          10.0196   41.0615   10.7495 C.3     1  UNL1        0.0087
      9 C           9.3559   41.2948   12.1027 C.3     1  UNL1        0.0175
     10 C           7.8494   41.4548   11.9126 C.3     1  UNL1        0.0686
     11 C           8.1054   42.3043    9.7091 C.3     1  UNL1        0.0745
     12 N           7.5734   42.5944   11.0394 N.3     1  UNL1       -0.2971
     13 H           8.0220   43.4304   11.4138 H       1  UNL1        0.1233
     14 N          13.5735   41.5736    6.9854 N.pl3   1  UNL1       -0.2834
     15 H          13.9861   40.6892    7.1153 H       1  UNL1        0.1550
     16 C          17.8638   43.7922    7.8265 C.3     1  UNL1        0.0521
     17 C          16.5484   43.7617    7.1361 C.ar    1  UNL1        0.0608
     18 C          14.4730   42.6644    6.7453 C.ar    1  UNL1        0.1328
     19 C          14.0883   43.6778    5.8631 C.ar    1  UNL1        0.0344
     20 C          14.9558   44.7444    5.6217 C.ar    1  UNL1        0.0041
     21 C          16.1955   44.7905    6.2607 C.ar    1  UNL1        0.0148
     22 N          15.6888   42.7311    7.3576 N.ar    1  UNL1       -0.2349
@<TRIPOS>BOND
     1    16    17    1
     2    18    22   ar
     3    18    14    1
     4    19    20   ar
     5    21    17   ar
     6     1     6   ar
     7     2     3   ar
     8     4     5   ar
     9     7     5    1
    10     7     8    1
    11     8     9    1
    12     9    10    1
    13    10    12    1
    14    11    12    1
    15    11     7    1
    16    14     1    1
    17    17    22   ar
    18    18    19   ar
    19    20    21   ar
    20     1     2   ar
    21     3     4   ar
    22     5     6   ar
    23    14    15    1
    24    12    13    1
@<TRIPOS>MOLECULE
Molport-046-951-091 MCULE-8395810544 MCULE-9977033632 PubChem-110089563
 22 24 0 0 0
SMALL
GASTEIGER

@<TRIPOS>ATOM
      1 C          11.8801   41.4657    8.0306 C.ar    1  UNL1        0.1328
      2 C          12.1381   41.0540    9.3453 C.ar    1  UNL1        0.0344
      3 C          11.1193   41.1038   10.2964 C.ar    1  UNL1        0.0041
      4 C           9.8535   41.5619    9.9334 C.ar    1  UNL1        0.0149
      5 C           9.6236   41.9672    8.6116 C.ar    1  UNL1        0.0614
      6 N          10.6352   41.9087    7.7033 N.ar    1  UNL1       -0.2348
      7 C           8.2817   42.4657    8.1779 C.3     1  UNL1        0.0561
      8 C           7.9724   43.8256    8.8043 C.3     1  UNL1        0.0087
      9 C           6.5672   44.2766    8.4192 C.3     1  UNL1        0.0175
     10 C           5.5633   43.1832    8.7767 C.3     1  UNL1        0.0686
     11 C           7.1809   41.4616    8.5276 C.3     1  UNL1        0.0745
     12 N           5.8866   41.9521    8.0574 N.3     1  UNL1       -0.2971
     13 H           5.9344   42.1418    7.0564 H       1  UNL1        0.1233
     14 N          12.8922   41.4348    7.0143 N.pl3   1  UNL1       -0.2834
     15 H          12.7949   40.7399    6.3236 H       1  UNL1        0.1550
     16 C          17.4508   42.6605    8.3384 C.3     1  UNL1        0.0521
     17 C          16.2415   42.9159    7.5137 C.ar    1  UNL1        0.0608
     18 C          14.0293   42.2995    6.8887 C.ar    1  UNL1        0.1328
     19 C          13.9720   43.3673    5.9888 C.ar    1  UNL1        0.0344
     20 C          15.0728   44.2155    5.8582 C.ar    1  UNL1        0.0041
     21 C          16.2176   43.9917    6.6241 C.ar    1  UNL1        0.0148
     22 N          15.1582   42.1009    7.6260 N.ar    1  UNL1       -0.2349
@<TRIPOS>BOND
     1    16    17    1
     2    18    22   ar
     3    18    14    1
     4    19    20   ar
     5    21    17   ar
     6     1     6   ar
     7     2     3   ar
     8     4     5   ar
     9     7     5    1
    10     7     8    1
    11     8     9    1
    12     9    10    1
    13    10    12    1
    14    11    12    1
    15    11     7    1
    16    14     1    1
    17    17    22   ar
    18    18    19   ar
    19    20    21   ar
    20     1     2   ar
    21     3     4   ar
    22     5     6   ar
    23    14    15    1
    24    12    13    1
@<TRIPOS>MOLECULE
Molport-046-951-091 MCULE-8395810544 MCULE-9977033632 PubChem-110089563
 22 24 0 0 0
SMALL
GASTEIGER

@<TRIPOS>ATOM
      1 C          11.7894   41.1984    6.6233 C.ar    1  UNL1        0.1328
      2 C          10.3937   41.0843    6.5653 C.ar    1  UNL1        0.0344
      3 C           9.7556   40.0584    7.2620 C.ar    1  UNL1        0.0041
      4 C          10.5094   39.1550    8.0101 C.ar    1  UNL1        0.0149
      5 C          11.9036   39.2930    8.0505 C.ar    1  UNL1        0.0614
      6 N          12.5009   40.3029    7.3613 N.ar    1  UNL1       -0.2348
      7 C          12.7517   38.3468    8.8397 C.3     1  UNL1        0.0561
      8 C          11.8918   37.4564    9.7370 C.3     1  UNL1        0.0087
      9 C          12.7780   36.5594   10.5951 C.3     1  UNL1        0.0175
     10 C          13.7903   37.4151   11.3529 C.3     1  UNL1        0.0686
     11 C          13.7844   39.1016    9.6801 C.3     1  UNL1        0.0745
     12 N          14.6265   38.1549   10.4090 N.3     1  UNL1       -0.2971
     13 H          15.0606   37.5056    9.7529 H       1  UNL1        0.1233
     14 N          12.4948   42.2348    5.9256 N.pl3   1  UNL1       -0.2834
     15 H          12.0597   42.5894    5.1168 H       1  UNL1        0.1550
     16 C          16.7062   42.0314    8.4274 C.3     1  UNL1        0.0521
     17 C          15.8127   42.7390    7.4741 C.ar    1  UNL1        0.0608
     18 C          13.7607   42.8134    6.2708 C.ar    1  UNL1        0.1328
     19 C          14.1250   44.0356    5.6992 C.ar    1  UNL1        0.0344
     20 C          15.3549   44.6083    6.0279 C.ar    1  UNL1        0.0041
     21 C          16.2077   43.9587    6.9213 C.ar    1  UNL1        0.0148
     22 N          14.6101   42.1977    7.1408 N.ar    1  UNL1       -0.2349
@<TRIPOS>BOND
     1    16    17    1
     2    18    22   ar
     3    18    14    1
     4    19    20   ar
     5    21    17   ar
     6     1     6   ar
     7     2     3   ar
     8     4     5   ar
     9     7     5    1
    10     7     8    1
    11     8     9    1
    12     9    10    1
    13    10    12    1
    14    11    12    1
    15    11     7    1
    16    14     1    1
    17    17    22   ar
    18    18    19   ar
    19    20    21   ar
    20     1     2   ar
    21     3     4   ar
    22     5     6   ar
    23    14    15    1
    24    12    13    1
@<TRIPOS>MOLECULE
Molport-046-951-091 MCULE-8395810544 MCULE-9977033632 PubChem-110089563
 22 24 0 0 0
SMALL
GASTEIGER

@<TRIPOS>ATOM
      1 C          10.5579   42.2975    8.6293 C.ar    1  UNL1        0.1328
      2 C          10.9079   42.8702    9.8597 C.ar    1  UNL1        0.0344
      3 C           9.9328   43.5076   10.6265 C.ar    1  UNL1        0.0041
      4 C           8.6189   43.5706   10.1643 C.ar    1  UNL1        0.0149
      5 C           8.2970   42.9892    8.9303 C.ar    1  UNL1        0.0614
      6 N           9.2677   42.3735    8.2020 N.ar    1  UNL1       -0.2348
      7 C           6.9008   43.0331    8.3955 C.3     1  UNL1        0.0561
      8 C           6.3752   44.4680    8.3498 C.3     1  UNL1        0.0087
      9 C           4.9232   44.4834    7.8834 C.3     1  UNL1        0.0175
     10 C           4.0953   43.5443    8.7576 C.3     1  UNL1        0.0686
     11 C           5.9636   42.1546    9.2275 C.3     1  UNL1        0.0745
     12 N           4.6163   42.1817    8.6612 N.3     1  UNL1       -0.2971
     13 H           4.6493   41.8951    7.6828 H       1  UNL1        0.1233
     14 N          11.5219   41.6307    7.8021 N.pl3   1  UNL1       -0.2834
     15 H          11.2111   40.8201    7.3377 H       1  UNL1        0.1550
     16 C          14.8032   44.5355    5.6039 C.3     1  UNL1        0.0521
     17 C          14.4996   43.4053    6.5194 C.ar    1  UNL1        0.0608
     18 C          12.8863   42.0090    7.5738 C.ar    1  UNL1        0.1328
     19 C          13.9026   41.3014    8.2215 C.ar    1  UNL1        0.0344
     20 C          15.2343   41.6608    8.0069 C.ar    1  UNL1        0.0041
     21 C          15.5392   42.7196    7.1506 C.ar    1  UNL1        0.0148
     22 N          13.2085   43.0394    6.7421 N.ar    1  UNL1       -0.2349
@<TRIPOS>BOND
     1    16    17    1
     2    18    22   ar
     3    18    14    1
     4    19    20   ar
     5    21    17   ar
     6     1     6   ar
     7     2     3   ar
     8     4     5   ar
     9     7     5    1
    10     7     8    1
    11     8     9    1
    12     9    10    1
    13    10    12    1
    14    11    12    1
    15    11     7    1
    16    14     1    1
    17    17    22   ar
    18    18    19   ar
    19    20    21   ar
    20     1     2   ar
    21     3     4   ar
    22     5     6   ar
    23    14    15    1
    24    12    13    1
@<TRIPOS>MOLECULE
Molport-046-951-091 MCULE-8395810544 MCULE-9977033632 PubChem-110089563
 22 24 0 0 0
SMALL
GASTEIGER

@<TRIPOS>ATOM
      1 C          12.6959   42.0655    6.4889 C.ar    1  UNL1        0.1328
      2 C          13.7582   42.9407    6.2250 C.ar    1  UNL1        0.0344
      3 C          14.9534   42.8080    6.9313 C.ar    1  UNL1        0.0041
      4 C          15.0828   41.8072    7.8934 C.ar    1  UNL1        0.0149
      5 C          14.0043   40.9458    8.1367 C.ar    1  UNL1        0.0614
      6 N          12.8492   41.0973    7.4335 N.ar    1  UNL1       -0.2348
      7 C          14.0986   39.8585    9.1595 C.3     1  UNL1        0.0561
      8 C          13.2765   40.2008   10.4021 C.3     1  UNL1        0.0087
      9 C          13.4537   39.1221   11.4657 C.3     1  UNL1        0.0175
     10 C          14.9412   38.9145   11.7405 C.3     1  UNL1        0.0686
     11 C          15.5546   39.5912    9.5478 C.3     1  UNL1        0.0745
     12 N          15.6231   38.4983   10.5161 N.3     1  UNL1       -0.2971
     13 H          15.1661   37.6709   10.1328 H       1  UNL1        0.1233
     14 N          11.4457   42.1588    5.7912 N.pl3   1  UNL1       -0.2834
     15 H          11.1300   43.0677    5.5827 H       1  UNL1        0.1550
     16 C           7.3176   39.5579    6.2717 C.3     1  UNL1        0.0521
     17 C           8.6070   39.8017    5.5747 C.ar    1  UNL1        0.0608
     18 C          10.6031   41.0804    5.3627 C.ar    1  UNL1        0.1328
     19 C          11.0176   40.2806    4.2942 C.ar    1  UNL1        0.0344
     20 C          10.2054   39.2282    3.8684 C.ar    1  UNL1        0.0041
     21 C           8.9909   38.9835    4.5105 C.ar    1  UNL1        0.0148
     22 N           9.4128   40.8222    5.9742 N.ar    1  UNL1       -0.2349
@<TRIPOS>BOND
     1    16    17    1
     2    18    22   ar
     3    18    14    1
     4    19    20   ar
     5    21    17   ar
     6     1     6   ar
     7     2     3   ar
     8     4     5   ar
     9     7     5    1
    10     7     8    1
    11     8     9    1
    12     9    10    1
    13    10    12    1
    14    11    12    1
    15    11     7    1
    16    14     1    1
    17    17    22   ar
    18    18    19   ar
    19    20    21   ar
    20     1     2   ar
    21     3     4   ar
    22     5     6   ar
    23    14    15    1
    24    12    13    1
@<TRIPOS>MOLECULE
Molport-046-951-091 MCULE-8395810544 MCULE-9977033632 PubChem-110089563
 22 24 0 0 0
SMALL
GASTEIGER

@<TRIPOS>ATOM
      1 C           9.2785   41.6602   10.8464 C.ar    1  UNL1        0.1328
      2 C           9.7144   42.8703   10.2897 C.ar    1  UNL1        0.0344
      3 C          10.9686   42.9388    9.6835 C.ar    1  UNL1        0.0041
      4 C          11.7785   41.8049    9.6356 C.ar    1  UNL1        0.0149
      5 C          11.3171   40.6079   10.2002 C.ar    1  UNL1        0.0614
      6 N          10.0893   40.5685   10.7857 N.ar    1  UNL1       -0.2348
      7 C          12.1522   39.3673   10.1720 C.3     1  UNL1        0.0561
      8 C          13.4195   39.5392   11.0095 C.3     1  UNL1        0.0087
      9 C          14.2975   38.2971   10.8991 C.3     1  UNL1        0.0175
     10 C          14.5607   37.9861    9.4276 C.3     1  UNL1        0.0686
     11 C          12.5171   38.9806    8.7369 C.3     1  UNL1        0.0745
     12 N          13.2970   37.7443    8.7333 N.3     1  UNL1       -0.2971
     13 H          12.7772   37.0090    9.2125 H       1  UNL1        0.1233
     14 N           7.9980   41.5358   11.4814 N.pl3   1  UNL1       -0.2834
     15 H           8.0043   41.4550   12.4625 H       1  UNL1        0.1550
     16 C           3.1144   41.8159   11.8106 C.3     1  UNL1        0.0521
     17 C           4.3373   41.6479   10.9836 C.ar    1  UNL1        0.0608
     18 C           6.7099   41.5155   10.8513 C.ar    1  UNL1        0.1328
     19 C           6.6359   41.3371    9.4671 C.ar    1  UNL1        0.0344
     20 C           5.3875   41.3158    8.8430 C.ar    1  UNL1        0.0041
     21 C           4.2275   41.4719    9.6029 C.ar    1  UNL1        0.0148
     22 N           5.5633   41.6659   11.5725 N.ar    1  UNL1       -0.2349
@<TRIPOS>BOND
     1    16    17    1
     2    18    22   ar
     3    18    14    1
     4    19    20   ar
     5    21    17   ar
     6     1     6   ar
     7     2     3   ar
     8     4     5   ar
     9     7     5    1
    10     7     8    1
    11     8     9    1
    12     9    10    1
    13    10    12    1
    14    11    12    1
    15    11     7    1
    16    14     1    1
    17    17    22   ar
    18    18    19   ar
    19    20    21   ar
    20     1     2   ar
    21     3     4   ar
    22     5     6   ar
    23    14    15    1
    24    12    13    1
