@<TRIPOS>MOLECULE
MolPort-029-894-951 96141649 CSSS00160105277 MCULE-8661123684 PubChem-72876543 ZINC000096141649
 27 30 0 0 0
SMALL
GASTEIGER

@<TRIPOS>ATOM
      1 O          11.6713   40.7914    8.7092 O.2     1  UNL1       -0.2525
      2 C          11.8271   42.0299    8.8852 C.2     1  UNL1        0.3047
      3 N          12.8477   42.7323    8.1735 N.am    1  UNL1       -0.2832
      4 N          10.9952   42.7541    9.8002 N.am    1  UNL1       -0.2682
      5 H          12.9719   43.6919    8.3550 H       1  UNL1        0.1513
      6 H          11.1812   43.7158    9.8986 H       1  UNL1        0.1564
      7 C           9.9198   42.2242   10.5877 C.ar    1  UNL1        0.0546
      8 C           8.6053   42.4249   10.1523 C.ar    1  UNL1        0.0516
      9 C           7.5245   41.9261   10.8868 C.ar    1  UNL1        0.1396
     10 C           7.7668   41.2142   12.0724 C.ar    1  UNL1        0.0370
     11 C           9.0756   41.0088   12.5143 C.ar    1  UNL1        0.0044
     12 C          10.1484   41.5121   11.7745 C.ar    1  UNL1        0.0149
     13 O           6.2261   42.1472   10.4150 O.3     1  UNL1       -0.4791
     14 C           5.9285   42.4225    9.0502 C.3     1  UNL1        0.1659
     15 C           4.5087   42.9516    8.9235 C.3     1  UNL1        0.0435
     16 C           4.5941   44.1831    8.0515 C.3     1  UNL1        0.0038
     17 C           5.9843   44.7267    8.2742 C.3     1  UNL1        0.0038
     18 C           6.8515   43.5148    8.5393 C.3     1  UNL1        0.0435
     19 C          13.7127   42.0928    7.1914 C.3     1  UNL1        0.1366
     20 C          14.5573   43.1128    6.4971 C.ar    1  UNL1        0.0775
     21 C          14.2893   43.6747    5.2687 C.ar    1  UNL1        0.1150
     22 C          16.1680   44.4378    6.0042 C.ar    1  UNL1        0.1783
     23 N          15.3069   44.5094    4.9662 N.ar    1  UNL1       -0.2226
     24 N          15.7205   43.6020    6.9601 N.ar    1  UNL1       -0.3128
     25 C          16.4281   43.2183    8.1795 C.3     1  UNL1        0.0869
     26 C          17.8249   43.8156    8.1786 C.3     1  UNL1        0.0245
     27 C          17.6327   42.3552    7.8419 C.3     1  UNL1        0.0245
@<TRIPOS>BOND
     1     2     3   am
     2     2     4   am
     3    19     3    1
     4    19    20    1
     5    21    23   ar
     6    22    24   ar
     7    25    24    1
     8    25    26    1
     9    26    27    1
    10    27    25    1
    11     8     9   ar
    12     9    13    1
    13    14    13    1
    14    14    15    1
    15    15    16    1
    16    16    17    1
    17    17    18    1
    18    18    14    1
    19    10    11   ar
    20    12     7   ar
    21    24    20   ar
    22     4     7    1
    23     2     1    2
    24    20    21   ar
    25    22    23   ar
    26     7     8   ar
    27     9    10   ar
    28    11    12   ar
    29     3     5    1
    30     4     6    1
@<TRIPOS>MOLECULE
MolPort-029-894-951 96141649 CSSS00160105277 MCULE-8661123684 PubChem-72876543 ZINC000096141649
 27 30 0 0 0
SMALL
GASTEIGER

@<TRIPOS>ATOM
      1 O          12.4387   41.6147    7.8019 O.2     1  UNL1       -0.2525
      2 C          12.6651   42.1608    6.6884 C.2     1  UNL1        0.3047
      3 N          11.6109   42.3090    5.7353 N.am    1  UNL1       -0.2832
      4 N          13.9751   42.6356    6.3538 N.am    1  UNL1       -0.2682
      5 H          11.8215   42.7067    4.8597 H       1  UNL1        0.1513
      6 H          14.0834   43.0389    5.4622 H       1  UNL1        0.1564
      7 C          15.1451   42.5846    7.1819 C.ar    1  UNL1        0.0546
      8 C          15.2796   41.5300    8.0915 C.ar    1  UNL1        0.0516
      9 C          16.4034   41.4382    8.9193 C.ar    1  UNL1        0.1396
     10 C          17.4064   42.4165    8.8307 C.ar    1  UNL1        0.0370
     11 C          17.2807   43.4725    7.9253 C.ar    1  UNL1        0.0044
     12 C          16.1539   43.5563    7.1039 C.ar    1  UNL1        0.0149
     13 O          16.4995   40.3664    9.8133 O.3     1  UNL1       -0.4791
     14 C          15.5728   39.2858    9.8381 C.3     1  UNL1        0.1659
     15 C          16.1962   38.0811   10.5249 C.3     1  UNL1        0.0435
     16 C          15.1738   37.5892   11.5234 C.3     1  UNL1        0.0038
     17 C          14.3717   38.8113   11.8989 C.3     1  UNL1        0.0038
     18 C          14.3565   39.6783   10.6583 C.3     1  UNL1        0.0435
     19 C          10.2388   41.8982    6.0006 C.3     1  UNL1        0.1366
     20 C           9.9296   40.6205    5.2881 C.ar    1  UNL1        0.0775
     21 C          10.5824   40.1458    4.1723 C.ar    1  UNL1        0.1150
     22 C           8.9831   38.7936    4.6886 C.ar    1  UNL1        0.1783
     23 N           9.9821   38.9942    3.8020 N.ar    1  UNL1       -0.2226
     24 N           8.9438   39.7679    5.6168 N.ar    1  UNL1       -0.3128
     25 C           7.9480   39.9198    6.6752 C.3     1  UNL1        0.0869
     26 C           6.5845   39.4776    6.1720 C.3     1  UNL1        0.0245
     27 C           6.9051   40.9505    6.2751 C.3     1  UNL1        0.0245
@<TRIPOS>BOND
     1     2     3   am
     2     2     4   am
     3    19     3    1
     4    19    20    1
     5    21    23   ar
     6    22    24   ar
     7    25    24    1
     8    25    26    1
     9    26    27    1
    10    27    25    1
    11     8     9   ar
    12     9    13    1
    13    14    13    1
    14    14    15    1
    15    15    16    1
    16    16    17    1
    17    17    18    1
    18    18    14    1
    19    10    11   ar
    20    12     7   ar
    21    24    20   ar
    22     4     7    1
    23     2     1    2
    24    20    21   ar
    25    22    23   ar
    26     7     8   ar
    27     9    10   ar
    28    11    12   ar
    29     3     5    1
    30     4     6    1
@<TRIPOS>MOLECULE
MolPort-029-894-951 96141649 CSSS00160105277 MCULE-8661123684 PubChem-72876543 ZINC000096141649
 27 30 0 0 0
SMALL
GASTEIGER

@<TRIPOS>ATOM
      1 O          10.7172   42.3341   10.3465 O.2     1  UNL1       -0.2525
      2 C          10.4064   41.1770   10.7388 C.2     1  UNL1        0.3047
      3 N           9.0906   40.9165   11.2313 N.am    1  UNL1       -0.2832
      4 N          11.3595   40.1074   10.7059 N.am    1  UNL1       -0.2682
      5 H           8.8837   40.0135   11.5644 H       1  UNL1        0.1513
      6 H          11.0531   39.2335   11.0401 H       1  UNL1        0.1564
      7 C          12.7132   40.1769   10.2369 C.ar    1  UNL1        0.0546
      8 C          12.9775   40.8597    9.0445 C.ar    1  UNL1        0.0516
      9 C          14.2819   40.9543    8.5484 C.ar    1  UNL1        0.1396
     10 C          15.3349   40.3580    9.2602 C.ar    1  UNL1        0.0370
     11 C          15.0804   39.6748   10.4514 C.ar    1  UNL1        0.0044
     12 C          13.7740   39.5845   10.9381 C.ar    1  UNL1        0.0149
     13 O          14.5027   41.6479    7.3536 O.3     1  UNL1       -0.4791
     14 C          14.5820   43.0674    7.2790 C.3     1  UNL1        0.1659
     15 C          16.0371   43.5084    7.2835 C.3     1  UNL1        0.0435
     16 C          16.1805   44.5002    6.1521 C.3     1  UNL1        0.0038
     17 C          15.1247   44.1064    5.1482 C.3     1  UNL1        0.0038
     18 C          13.9835   43.5414    5.9663 C.3     1  UNL1        0.0435
     19 C           8.0415   41.9266   11.2626 C.3     1  UNL1        0.1366
     20 C           7.1086   41.7461   10.1081 C.ar    1  UNL1        0.0775
     21 C           7.4033   42.0117    8.7894 C.ar    1  UNL1        0.1150
     22 C           5.3503   41.3680    8.9427 C.ar    1  UNL1        0.1783
     23 N           6.2919   41.7692    8.0615 N.ar    1  UNL1       -0.2226
     24 N           5.8337   41.3301   10.1986 N.ar    1  UNL1       -0.3128
     25 C           5.0782   41.0246   11.4114 C.3     1  UNL1        0.0869
     26 C           3.7734   40.3355   11.0502 C.3     1  UNL1        0.0245
     27 C           3.7702   41.7985   11.4279 C.3     1  UNL1        0.0245
@<TRIPOS>BOND
     1     2     3   am
     2     2     4   am
     3    19     3    1
     4    19    20    1
     5    21    23   ar
     6    22    24   ar
     7    25    24    1
     8    25    26    1
     9    26    27    1
    10    27    25    1
    11     8     9   ar
    12     9    13    1
    13    14    13    1
    14    14    15    1
    15    15    16    1
    16    16    17    1
    17    17    18    1
    18    18    14    1
    19    10    11   ar
    20    12     7   ar
    21    24    20   ar
    22     4     7    1
    23     2     1    2
    24    20    21   ar
    25    22    23   ar
    26     7     8   ar
    27     9    10   ar
    28    11    12   ar
    29     3     5    1
    30     4     6    1
@<TRIPOS>MOLECULE
MolPort-029-894-951 96141649 CSSS00160105277 MCULE-8661123684 PubChem-72876543 ZINC000096141649
 27 30 0 0 0
SMALL
GASTEIGER

@<TRIPOS>ATOM
      1 O          10.7559   40.6316    8.2844 O.2     1  UNL1       -0.2525
      2 C          10.9862   41.8531    8.4947 C.2     1  UNL1        0.3047
      3 N          12.1228   42.4813    7.8986 N.am    1  UNL1       -0.2832
      4 N          10.1240   42.6312    9.3343 N.am    1  UNL1       -0.2682
      5 H          12.3001   43.4270    8.1068 H       1  UNL1        0.1513
      6 H          10.3712   43.5750    9.4659 H       1  UNL1        0.1564
      7 C           8.9386   42.1786   10.0030 C.ar    1  UNL1        0.0546
      8 C           7.8173   41.8483    9.2340 C.ar    1  UNL1        0.0516
      9 C           6.6393   41.4018    9.8418 C.ar    1  UNL1        0.1396
     10 C           6.5873   41.2829   11.2397 C.ar    1  UNL1        0.0370
     11 C           7.7018   41.6100   12.0152 C.ar    1  UNL1        0.0044
     12 C           8.8734   42.0564   11.3990 C.ar    1  UNL1        0.0149
     13 O           5.5420   41.0800    9.0357 O.3     1  UNL1       -0.4791
     14 C           4.2125   40.9742    9.5340 C.3     1  UNL1        0.1659
     15 C           4.2309   40.4370   10.9563 C.3     1  UNL1        0.0435
     16 C           3.3294   41.3444   11.7613 C.3     1  UNL1        0.0038
     17 C           3.3872   42.6791   11.0593 C.3     1  UNL1        0.0038
     18 C           3.5810   42.3540    9.5938 C.3     1  UNL1        0.0435
     19 C          13.0309   41.7856    6.9969 C.3     1  UNL1        0.1366
     20 C          14.4058   41.7298    7.5818 C.ar    1  UNL1        0.0775
     21 C          14.7991   40.9308    8.6322 C.ar    1  UNL1        0.1150
     22 C          16.4622   42.1554    8.0098 C.ar    1  UNL1        0.1783
     23 N          16.0957   41.2030    8.8945 N.ar    1  UNL1       -0.2226
     24 N          15.4484   42.4802    7.1858 N.ar    1  UNL1       -0.3128
     25 C          15.4589   43.5264    6.1658 C.3     1  UNL1        0.0869
     26 C          16.8878   43.8291    5.7479 C.3     1  UNL1        0.0245
     27 C          16.1661   44.7662    6.6882 C.3     1  UNL1        0.0245
@<TRIPOS>BOND
     1     2     3   am
     2     2     4   am
     3    19     3    1
     4    19    20    1
     5    21    23   ar
     6    22    24   ar
     7    25    24    1
     8    25    26    1
     9    26    27    1
    10    27    25    1
    11     8     9   ar
    12     9    13    1
    13    14    13    1
    14    14    15    1
    15    15    16    1
    16    16    17    1
    17    17    18    1
    18    18    14    1
    19    10    11   ar
    20    12     7   ar
    21    24    20   ar
    22     4     7    1
    23     2     1    2
    24    20    21   ar
    25    22    23   ar
    26     7     8   ar
    27     9    10   ar
    28    11    12   ar
    29     3     5    1
    30     4     6    1
@<TRIPOS>MOLECULE
MolPort-029-894-951 96141649 CSSS00160105277 MCULE-8661123684 PubChem-72876543 ZINC000096141649
 27 30 0 0 0
SMALL
GASTEIGER

@<TRIPOS>ATOM
      1 O          10.4337   42.4714    9.3752 O.2     1  UNL1       -0.2525
      2 C          10.0768   41.2627    9.3423 C.2     1  UNL1        0.3047
      3 N           8.6886   40.9246    9.3577 N.am    1  UNL1       -0.2832
      4 N          11.0473   40.2093    9.2954 N.am    1  UNL1       -0.2682
      5 H           8.4368   39.9729    9.3670 H       1  UNL1        0.1513
      6 H          10.6984   39.2888    9.2854 H       1  UNL1        0.1564
      7 C          12.4736   40.3559    9.2615 C.ar    1  UNL1        0.0546
      8 C          13.0493   41.0925    8.2205 C.ar    1  UNL1        0.0516
      9 C          14.4357   41.2630    8.1463 C.ar    1  UNL1        0.1396
     10 C          15.2544   40.6888    9.1317 C.ar    1  UNL1        0.0370
     11 C          14.6884   39.9523   10.1747 C.ar    1  UNL1        0.0044
     12 C          13.3028   39.7864   10.2393 C.ar    1  UNL1        0.0149
     13 O          14.9701   42.0085    7.0899 O.3     1  UNL1       -0.4791
     14 C          15.5906   43.2777    7.2666 C.3     1  UNL1        0.1659
     15 C          16.9451   43.1062    7.9357 C.3     1  UNL1        0.0435
     16 C          17.9225   43.9260    7.1252 C.3     1  UNL1        0.0038
     17 C          17.3499   43.9528    5.7291 C.3     1  UNL1        0.0038
     18 C          15.8478   43.9107    5.9103 C.3     1  UNL1        0.0435
     19 C           7.6292   41.9244    9.3604 C.3     1  UNL1        0.1366
     20 C           7.2996   42.3391    7.9622 C.ar    1  UNL1        0.0775
     21 C           7.8424   41.8010    6.8166 C.ar    1  UNL1        0.1150
     22 C           6.4956   43.3988    6.2818 C.ar    1  UNL1        0.1783
     23 N           7.3297   42.4720    5.7627 N.ar    1  UNL1       -0.2226
     24 N           6.4490   43.3238    7.6252 N.ar    1  UNL1       -0.3128
     25 C           5.7210   44.2201    8.5206 C.3     1  UNL1        0.0869
     26 C           4.4458   43.5492    9.0020 C.3     1  UNL1        0.0245
     27 C           4.3789   44.5963    7.9147 C.3     1  UNL1        0.0245
@<TRIPOS>BOND
     1     2     3   am
     2     2     4   am
     3    19     3    1
     4    19    20    1
     5    21    23   ar
     6    22    24   ar
     7    25    24    1
     8    25    26    1
     9    26    27    1
    10    27    25    1
    11     8     9   ar
    12     9    13    1
    13    14    13    1
    14    14    15    1
    15    15    16    1
    16    16    17    1
    17    17    18    1
    18    18    14    1
    19    10    11   ar
    20    12     7   ar
    21    24    20   ar
    22     4     7    1
    23     2     1    2
    24    20    21   ar
    25    22    23   ar
    26     7     8   ar
    27     9    10   ar
    28    11    12   ar
    29     3     5    1
    30     4     6    1
@<TRIPOS>MOLECULE
MolPort-029-894-951 96141649 CSSS00160105277 MCULE-8661123684 PubChem-72876543 ZINC000096141649
 27 30 0 0 0
SMALL
GASTEIGER

@<TRIPOS>ATOM
      1 O          10.6341   42.4216   10.5770 O.2     1  UNL1       -0.2525
      2 C          10.2946   41.2490   10.8918 C.2     1  UNL1        0.3047
      3 N           8.9848   40.9950   11.4033 N.am    1  UNL1       -0.2832
      4 N          11.2089   40.1546   10.7507 N.am    1  UNL1       -0.2682
      5 H           8.7562   40.0767   11.6748 H       1  UNL1        0.1513
      6 H          10.8819   39.2685   11.0284 H       1  UNL1        0.1564
      7 C          12.5505   40.2153   10.2472 C.ar    1  UNL1        0.0546
      8 C          12.7866   40.8844    9.0413 C.ar    1  UNL1        0.0516
      9 C          14.0784   40.9700    8.5116 C.ar    1  UNL1        0.1396
     10 C          15.1474   40.3785    9.2032 C.ar    1  UNL1        0.0370
     11 C          14.9211   39.7090   10.4078 C.ar    1  UNL1        0.0044
     12 C          13.6272   39.6275   10.9280 C.ar    1  UNL1        0.0149
     13 O          14.2709   41.6500    7.3042 O.3     1  UNL1       -0.4791
     14 C          14.4809   43.0560    7.2258 C.3     1  UNL1        0.1659
     15 C          15.9690   43.3562    7.1420 C.3     1  UNL1        0.0435
     16 C          16.1379   44.3370    6.0046 C.3     1  UNL1        0.0038
     17 C          14.9905   44.0521    5.0664 C.3     1  UNL1        0.0038
     18 C          13.8520   43.5933    5.9522 C.3     1  UNL1        0.0435
     19 C           7.9725   42.0333   11.5414 C.3     1  UNL1        0.1366
     20 C           6.7509   41.6788   10.7556 C.ar    1  UNL1        0.0775
     21 C           5.6088   41.1019   11.2648 C.ar    1  UNL1        0.1150
     22 C           5.3929   41.3423    9.1322 C.ar    1  UNL1        0.1783
     23 N           4.7576   40.8950   10.2369 N.ar    1  UNL1       -0.2226
     24 N           6.6072   41.8418    9.4291 N.ar    1  UNL1       -0.3128
     25 C           7.6008   42.3336    8.4774 C.3     1  UNL1        0.0869
     26 C           7.7498   43.8393    8.6144 C.3     1  UNL1        0.0245
     27 C           6.9498   43.2653    7.4683 C.3     1  UNL1        0.0245
@<TRIPOS>BOND
     1     2     3   am
     2     2     4   am
     3    19     3    1
     4    19    20    1
     5    21    23   ar
     6    22    24   ar
     7    25    24    1
     8    25    26    1
     9    26    27    1
    10    27    25    1
    11     8     9   ar
    12     9    13    1
    13    14    13    1
    14    14    15    1
    15    15    16    1
    16    16    17    1
    17    17    18    1
    18    18    14    1
    19    10    11   ar
    20    12     7   ar
    21    24    20   ar
    22     4     7    1
    23     2     1    2
    24    20    21   ar
    25    22    23   ar
    26     7     8   ar
    27     9    10   ar
    28    11    12   ar
    29     3     5    1
    30     4     6    1
@<TRIPOS>MOLECULE
MolPort-029-894-951 96141649 CSSS00160105277 MCULE-8661123684 PubChem-72876543 ZINC000096141649
 27 30 0 0 0
SMALL
GASTEIGER

@<TRIPOS>ATOM
      1 O          11.4164   41.6941    9.4995 O.2     1  UNL1       -0.2525
      2 C          10.9862   40.5185    9.6480 C.2     1  UNL1        0.3047
      3 N          11.7501   39.5637   10.3872 N.am    1  UNL1       -0.2832
      4 N           9.7348   40.1147    9.0782 N.am    1  UNL1       -0.2682
      5 H          11.4091   38.6429   10.4588 H       1  UNL1        0.1513
      6 H           9.4667   39.1784    9.2218 H       1  UNL1        0.1564
      7 C           8.8320   40.9322    8.3207 C.ar    1  UNL1        0.0546
      8 C           7.5606   41.1926    8.8437 C.ar    1  UNL1        0.0516
      9 C           6.6466   41.9848    8.1412 C.ar    1  UNL1        0.1396
     10 C           7.0149   42.5249    6.8988 C.ar    1  UNL1        0.0370
     11 C           8.2819   42.2706    6.3693 C.ar    1  UNL1        0.0044
     12 C           9.1873   41.4769    7.0777 C.ar    1  UNL1        0.0149
     13 O           5.3866   42.2222    8.7011 O.3     1  UNL1       -0.4791
     14 C           4.6960   41.2678    9.5006 C.3     1  UNL1        0.1659
     15 C           5.0049   41.4997   10.9712 C.3     1  UNL1        0.0435
     16 C           3.6747   41.4877   11.6884 C.3     1  UNL1        0.0038
     17 C           2.6701   41.9489   10.6610 C.3     1  UNL1        0.0038
     18 C           3.1981   41.4527    9.3321 C.3     1  UNL1        0.0435
     19 C          13.0106   39.8911   11.0397 C.3     1  UNL1        0.1366
     20 C          14.1395   39.1532   10.3940 C.ar    1  UNL1        0.0775
     21 C          15.1760   39.7273    9.6922 C.ar    1  UNL1        0.1150
     22 C          15.3903   37.5814    9.6472 C.ar    1  UNL1        0.1783
     23 N          15.9605   38.7313    9.2268 N.ar    1  UNL1       -0.2226
     24 N          14.2843   37.8170   10.3777 N.ar    1  UNL1       -0.3128
     25 C          13.3714   36.8134   10.9203 C.3     1  UNL1        0.0869
     26 C          13.5137   35.5119   10.1497 C.3     1  UNL1        0.0245
     27 C          12.3377   36.4208    9.8775 C.3     1  UNL1        0.0245
@<TRIPOS>BOND
     1     2     3   am
     2     2     4   am
     3    19     3    1
     4    19    20    1
     5    21    23   ar
     6    22    24   ar
     7    25    24    1
     8    25    26    1
     9    26    27    1
    10    27    25    1
    11     8     9   ar
    12     9    13    1
    13    14    13    1
    14    14    15    1
    15    15    16    1
    16    16    17    1
    17    17    18    1
    18    18    14    1
    19    10    11   ar
    20    12     7   ar
    21    24    20   ar
    22     4     7    1
    23     2     1    2
    24    20    21   ar
    25    22    23   ar
    26     7     8   ar
    27     9    10   ar
    28    11    12   ar
    29     3     5    1
    30     4     6    1
@<TRIPOS>MOLECULE
MolPort-029-894-951 96141649 CSSS00160105277 MCULE-8661123684 PubChem-72876543 ZINC000096141649
 27 30 0 0 0
SMALL
GASTEIGER

@<TRIPOS>ATOM
      1 O          10.4323   42.0789    9.4077 O.2     1  UNL1       -0.2525
      2 C           9.9842   41.1050    8.7444 C.2     1  UNL1        0.3047
      3 N          10.7979   39.9506    8.5274 N.am    1  UNL1       -0.2832
      4 N           8.6621   41.1360    8.1924 N.am    1  UNL1       -0.2682
      5 H          10.4377   39.2186    7.9764 H       1  UNL1        0.1513
      6 H           8.3822   40.3471    7.6741 H       1  UNL1        0.1564
      7 C           7.7040   42.1961    8.3160 C.ar    1  UNL1        0.0546
      8 C           6.3495   41.8674    8.4380 C.ar    1  UNL1        0.0516
      9 C           5.3790   42.8672    8.5617 C.ar    1  UNL1        0.1396
     10 C           5.7741   44.2144    8.5657 C.ar    1  UNL1        0.0370
     11 C           7.1240   44.5517    8.4449 C.ar    1  UNL1        0.0044
     12 C           8.0856   43.5461    8.3203 C.ar    1  UNL1        0.0149
     13 O           4.0359   42.4951    8.6835 O.3     1  UNL1       -0.4791
     14 C           3.4458   42.0957    9.9161 C.3     1  UNL1        0.1659
     15 C           3.1953   40.5960    9.9114 C.3     1  UNL1        0.0435
     16 C           3.7378   40.0739   11.2219 C.3     1  UNL1        0.0038
     17 C           4.8414   41.0316   11.5998 C.3     1  UNL1        0.0038
     18 C           4.4099   42.3764   11.0553 C.3     1  UNL1        0.0435
     19 C          12.1362   39.8080    9.0845 C.3     1  UNL1        0.1366
     20 C          12.2834   38.4799    9.7553 C.ar    1  UNL1        0.0775
     21 C          11.5196   37.3628    9.4996 C.ar    1  UNL1        0.1150
     22 C          12.9156   36.9214   11.0836 C.ar    1  UNL1        0.1783
     23 N          11.9251   36.3851   10.3383 N.ar    1  UNL1       -0.2226
     24 N          13.1628   38.1971   10.7317 N.ar    1  UNL1       -0.3128
     25 C          14.1045   39.1094   11.3767 C.3     1  UNL1        0.0869
     26 C          15.3773   39.2088   10.5533 C.3     1  UNL1        0.0245
     27 C          15.3565   38.3610   11.8038 C.3     1  UNL1        0.0245
@<TRIPOS>BOND
     1     2     3   am
     2     2     4   am
     3    19     3    1
     4    19    20    1
     5    21    23   ar
     6    22    24   ar
     7    25    24    1
     8    25    26    1
     9    26    27    1
    10    27    25    1
    11     8     9   ar
    12     9    13    1
    13    14    13    1
    14    14    15    1
    15    15    16    1
    16    16    17    1
    17    17    18    1
    18    18    14    1
    19    10    11   ar
    20    12     7   ar
    21    24    20   ar
    22     4     7    1
    23     2     1    2
    24    20    21   ar
    25    22    23   ar
    26     7     8   ar
    27     9    10   ar
    28    11    12   ar
    29     3     5    1
    30     4     6    1
@<TRIPOS>MOLECULE
MolPort-029-894-951 96141649 CSSS00160105277 MCULE-8661123684 PubChem-72876543 ZINC000096141649
 27 30 0 0 0
SMALL
GASTEIGER

@<TRIPOS>ATOM
      1 O          12.6953   41.0482    8.0297 O.2     1  UNL1       -0.2525
      2 C          12.5367   41.9665    7.1806 C.2     1  UNL1        0.3047
      3 N          11.2423   42.2180    6.6302 N.am    1  UNL1       -0.2832
      4 N          13.6429   42.7679    6.7473 N.am    1  UNL1       -0.2682
      5 H          11.1516   42.9172    5.9430 H       1  UNL1        0.1513
      6 H          13.4496   43.4579    6.0722 H       1  UNL1        0.1564
      7 C          15.0022   42.6700    7.1944 C.ar    1  UNL1        0.0546
      8 C          15.3073   41.7781    8.2285 C.ar    1  UNL1        0.0516
      9 C          16.6187   41.6479    8.6972 C.ar    1  UNL1        0.1396
     10 C          17.6374   42.4213    8.1183 C.ar    1  UNL1        0.0370
     11 C          17.3422   43.3137    7.0854 C.ar    1  UNL1        0.0044
     12 C          16.0290   43.4377    6.6252 C.ar    1  UNL1        0.0149
     13 O          16.8809   40.7430    9.7315 O.3     1  UNL1       -0.4791
     14 C          16.3346   39.4290    9.7753 C.3     1  UNL1        0.1659
     15 C          17.2906   38.4916   10.4958 C.3     1  UNL1        0.0435
     16 C          16.4564   37.7275   11.4980 C.3     1  UNL1        0.0038
     17 C          15.3095   38.6478   11.8377 C.3     1  UNL1        0.0038
     18 C          15.0446   39.4415   10.5764 C.3     1  UNL1        0.0435
     19 C          10.0510   41.4868    7.0398 C.3     1  UNL1        0.1366
     20 C           9.3789   42.1814    8.1807 C.ar    1  UNL1        0.0775
     21 C           9.9749   42.5261    9.3734 C.ar    1  UNL1        0.1150
     22 C           7.8895   43.0738    9.4369 C.ar    1  UNL1        0.1783
     23 N           9.0312   43.0894   10.1583 N.ar    1  UNL1       -0.2226
     24 N           8.0835   42.5382    8.2172 N.ar    1  UNL1       -0.3128
     25 C           7.0591   42.2854    7.2064 C.3     1  UNL1        0.0869
     26 C           7.1364   43.3388    6.1145 C.3     1  UNL1        0.0245
     27 C           6.0591   43.4294    7.1702 C.3     1  UNL1        0.0245
@<TRIPOS>BOND
     1     2     3   am
     2     2     4   am
     3    19     3    1
     4    19    20    1
     5    21    23   ar
     6    22    24   ar
     7    25    24    1
     8    25    26    1
     9    26    27    1
    10    27    25    1
    11     8     9   ar
    12     9    13    1
    13    14    13    1
    14    14    15    1
    15    15    16    1
    16    16    17    1
    17    17    18    1
    18    18    14    1
    19    10    11   ar
    20    12     7   ar
    21    24    20   ar
    22     4     7    1
    23     2     1    2
    24    20    21   ar
    25    22    23   ar
    26     7     8   ar
    27     9    10   ar
    28    11    12   ar
    29     3     5    1
    30     4     6    1
@<TRIPOS>MOLECULE
MolPort-029-894-951 96141649 CSSS00160105277 MCULE-8661123684 PubChem-72876543 ZINC000096141649
 27 30 0 0 0
SMALL
GASTEIGER

@<TRIPOS>ATOM
      1 O          11.1979   40.3599    8.7659 O.2     1  UNL1       -0.2525
      2 C          11.5681   41.5034    9.1464 C.2     1  UNL1        0.3047
      3 N          12.8482   42.0076    8.7605 N.am    1  UNL1       -0.2832
      4 N          10.7232   42.3139    9.9727 N.am    1  UNL1       -0.2682
      5 H          13.1281   42.8884    9.0997 H       1  UNL1        0.1513
      6 H          11.0812   43.1900   10.2439 H       1  UNL1        0.1564
      7 C           9.4105   41.9822   10.4460 C.ar    1  UNL1        0.0546
      8 C           8.4002   41.7370    9.5096 C.ar    1  UNL1        0.0516
      9 C           7.1050   41.4095    9.9239 C.ar    1  UNL1        0.1396
     10 C           6.8212   41.3243   11.2962 C.ar    1  UNL1        0.0370
     11 C           7.8236   41.5670   12.2380 C.ar    1  UNL1        0.0044
     12 C           9.1138   41.8949   11.8143 C.ar    1  UNL1        0.0149
     13 O           6.1248   41.1700    8.9547 O.3     1  UNL1       -0.4791
     14 C           5.4866   42.2075    8.2178 C.3     1  UNL1        0.1659
     15 C           5.3818   43.4625    9.0698 C.3     1  UNL1        0.0435
     16 C           5.8739   44.6008    8.2059 C.3     1  UNL1        0.0038
     17 C           6.8499   43.9699    7.2430 C.3     1  UNL1        0.0038
     18 C           6.3329   42.5667    7.0091 C.3     1  UNL1        0.0435
     19 C          13.7577   41.2774    7.8879 C.3     1  UNL1        0.1366
     20 C          15.1388   41.8422    7.9837 C.ar    1  UNL1        0.0775
     21 C          16.1866   41.2855    8.6829 C.ar    1  UNL1        0.1150
     22 C          16.8271   43.1506    7.8088 C.ar    1  UNL1        0.1783
     23 N          17.2466   42.1141    8.5662 N.ar    1  UNL1       -0.2226
     24 N          15.5454   42.9962    7.4271 N.ar    1  UNL1       -0.3128
     25 C          14.7411   43.9565    6.6749 C.3     1  UNL1        0.0869
     26 C          14.9905   43.7883    5.1858 C.3     1  UNL1        0.0245
     27 C          15.6402   44.9306    5.9314 C.3     1  UNL1        0.0245
@<TRIPOS>BOND
     1     2     3   am
     2     2     4   am
     3    19     3    1
     4    19    20    1
     5    21    23   ar
     6    22    24   ar
     7    25    24    1
     8    25    26    1
     9    26    27    1
    10    27    25    1
    11     8     9   ar
    12     9    13    1
    13    14    13    1
    14    14    15    1
    15    15    16    1
    16    16    17    1
    17    17    18    1
    18    18    14    1
    19    10    11   ar
    20    12     7   ar
    21    24    20   ar
    22     4     7    1
    23     2     1    2
    24    20    21   ar
    25    22    23   ar
    26     7     8   ar
    27     9    10   ar
    28    11    12   ar
    29     3     5    1
    30     4     6    1
