@<TRIPOS>MOLECULE
Molport-053-290-294 PubChem-165990344
 33 37 0 0 0
SMALL
GASTEIGER

@<TRIPOS>ATOM
      1 C          10.1239   41.9805   10.0660 C.2     1  UNL1        0.4076
      2 N          10.8849   41.8138    8.8650 N.am    1  UNL1       -0.2196
      3 O          10.6430   41.7599   11.1943 O.2     1  UNL1       -0.2260
      4 H          10.4113   41.9437    8.0117 H       1  UNL1        0.1611
      5 C          14.4566   42.0203    8.0348 C.ar    1  UNL1        0.1362
      6 C          12.2745   41.4746    8.7958 C.ar    1  UNL1        0.2264
      7 C          14.0737   40.0374    9.3377 C.ar    1  UNL1        0.1047
      8 C          14.9570   40.8671    8.6513 C.ar    1  UNL1        0.0551
      9 N          13.1252   42.2942    8.1240 N.ar    1  UNL1       -0.1985
     10 N          12.7549   40.3534    9.3989 N.ar    1  UNL1       -0.2118
     11 C          17.7182   43.2998    6.9733 C.3     1  UNL1        0.0240
     12 C          17.4201   43.8900    5.5856 C.3     1  UNL1        0.0328
     13 C          15.9680   44.3370    5.3801 C.3     1  UNL1        0.1303
     14 C          14.9762   43.3199    5.9500 C.3     1  UNL1        0.1212
     15 C          16.5454   43.4268    7.9409 C.3     1  UNL1        0.0923
     16 N          15.3286   42.9083    7.3142 N.pl3   1  UNL1       -0.2906
     17 O          15.7641   45.5854    5.9704 O.3     1  UNL1       -0.3827
     18 H          15.9216   45.5211    6.9254 H       1  UNL1        0.2104
     19 O           8.7918   42.3845    9.9696 O.3     1  UNL1       -0.4337
     20 C           7.7396   41.7250   10.6695 C.3     1  UNL1        0.2187
     21 C           6.5515   41.4184    9.7501 C.3     1  UNL1        0.0884
     22 C           5.2430   41.4412   10.4943 C.ar    1  UNL1       -0.0148
     23 C           4.8313   40.5970   11.5271 C.ar    1  UNL1       -0.0038
     24 C           3.5544   40.7905   12.0797 C.ar    1  UNL1       -0.0003
     25 C           2.7109   41.8080   11.5926 C.ar    1  UNL1       -0.0000
     26 C           3.1319   42.6408   10.5437 C.ar    1  UNL1       -0.0003
     27 C           4.4039   42.4304   10.0139 C.ar    1  UNL1       -0.0038
     28 C           5.0755   43.1085    8.9299 C.ar    1  UNL1       -0.0038
     29 C           4.6337   44.1578    8.1258 C.ar    1  UNL1       -0.0003
     30 C           5.4950   44.6218    7.1189 C.ar    1  UNL1       -0.0000
     31 C           6.7618   44.0338    6.9352 C.ar    1  UNL1       -0.0003
     32 C           7.1835   42.9759    7.7577 C.ar    1  UNL1       -0.0038
     33 C           6.3194   42.5279    8.7583 C.ar    1  UNL1       -0.0148
@<TRIPOS>BOND
     1    11    12    1
     2    12    13    1
     3    13    14    1
     4    13    17    1
     5    14    16    1
     6    15    16    1
     7    15    11    1
     8     6     9   ar
     9     6     2    1
    10     7    10   ar
    11     8     5   ar
    12     1    19    1
    13    20    19    1
    14    20    21    1
    15    21    22    1
    16    21    33    1
    17    23    24   ar
    18    25    26   ar
    19    27    28    1
    20    27    22   ar
    21    29    30   ar
    22    31    32   ar
    23    33    28   ar
    24    16     5    1
    25     2     1   am
    26     5     9   ar
    27     6    10   ar
    28     7     8   ar
    29     1     3    2
    30    22    23   ar
    31    24    25   ar
    32    26    27   ar
    33    28    29   ar
    34    30    31   ar
    35    32    33   ar
    36     2     4    1
    37    17    18    1
@<TRIPOS>MOLECULE
Molport-053-290-294 PubChem-165990344
 33 37 0 0 0
SMALL
GASTEIGER

@<TRIPOS>ATOM
      1 C          11.1888   42.0274    9.0658 C.2     1  UNL1        0.4076
      2 N          10.6811   41.9095   10.3991 N.am    1  UNL1       -0.2196
      3 O          10.4136   41.9653    8.0727 O.2     1  UNL1       -0.2260
      4 H          11.3390   41.9071   11.1315 H       1  UNL1        0.1611
      5 C           7.0265   42.2365   10.2385 C.ar    1  UNL1        0.1362
      6 C           9.3003   41.7947   10.7611 C.ar    1  UNL1        0.2264
      7 C           7.6140   41.0429   12.2400 C.ar    1  UNL1        0.1047
      8 C           6.6326   41.5828   11.4124 C.ar    1  UNL1        0.0551
      9 N           8.3534   42.3249    9.9432 N.ar    1  UNL1       -0.1985
     10 N           8.9239   41.1565   11.9023 N.ar    1  UNL1       -0.2118
     11 C           3.6260   43.0684    9.1677 C.3     1  UNL1        0.0240
     12 C           3.8281   44.3568    8.3540 C.3     1  UNL1        0.0328
     13 C           5.2213   44.5075    7.7319 C.3     1  UNL1        0.1303
     14 C           6.3257   44.1025    8.7113 C.3     1  UNL1        0.1212
     15 C           4.8028   42.1033    9.0604 C.3     1  UNL1        0.0923
     16 N           6.0508   42.8106    9.3516 N.pl3   1  UNL1       -0.2906
     17 O           5.3105   43.7417    6.5682 O.3     1  UNL1       -0.3827
     18 H           5.1837   42.8052    6.7869 H       1  UNL1        0.2104
     19 O          12.5603   42.2047    8.8798 O.3     1  UNL1       -0.4337
     20 C          13.1137   42.6489    7.6435 C.3     1  UNL1        0.2187
     21 C          14.3637   41.8478    7.2609 C.3     1  UNL1        0.0884
     22 C          15.5837   42.7236    7.1561 C.ar    1  UNL1       -0.0148
     23 C          15.8143   43.7652    6.2556 C.ar    1  UNL1       -0.0038
     24 C          17.0371   44.4529    6.3281 C.ar    1  UNL1       -0.0003
     25 C          18.0067   44.0893    7.2829 C.ar    1  UNL1       -0.0000
     26 C          17.7676   43.0304    8.1731 C.ar    1  UNL1       -0.0003
     27 C          16.5460   42.3653    8.0829 C.ar    1  UNL1       -0.0038
     28 C          16.0497   41.2406    8.8408 C.ar    1  UNL1       -0.0038
     29 C          16.6574   40.5213    9.8686 C.ar    1  UNL1       -0.0003
     30 C          15.9477   39.4466   10.4273 C.ar    1  UNL1       -0.0000
     31 C          14.6641   39.1136    9.9521 C.ar    1  UNL1       -0.0003
     32 C          14.0738   39.8529    8.9136 C.ar    1  UNL1       -0.0038
     33 C          14.7882   40.9222    8.3707 C.ar    1  UNL1       -0.0148
@<TRIPOS>BOND
     1    11    12    1
     2    12    13    1
     3    13    14    1
     4    13    17    1
     5    14    16    1
     6    15    16    1
     7    15    11    1
     8     6     9   ar
     9     6     2    1
    10     7    10   ar
    11     8     5   ar
    12     1    19    1
    13    20    19    1
    14    20    21    1
    15    21    22    1
    16    21    33    1
    17    23    24   ar
    18    25    26   ar
    19    27    28    1
    20    27    22   ar
    21    29    30   ar
    22    31    32   ar
    23    33    28   ar
    24    16     5    1
    25     2     1   am
    26     5     9   ar
    27     6    10   ar
    28     7     8   ar
    29     1     3    2
    30    22    23   ar
    31    24    25   ar
    32    26    27   ar
    33    28    29   ar
    34    30    31   ar
    35    32    33   ar
    36     2     4    1
    37    17    18    1
@<TRIPOS>MOLECULE
Molport-053-290-294 PubChem-165990344
 33 37 0 0 0
SMALL
GASTEIGER

@<TRIPOS>ATOM
      1 C          10.6104   41.7688    7.9800 C.2     1  UNL1        0.4076
      2 N          10.7754   41.9830    9.3857 N.am    1  UNL1       -0.2196
      3 O           9.5468   41.2662    7.5247 O.2     1  UNL1       -0.2260
      4 H          11.6480   42.3238    9.6887 H       1  UNL1        0.1611
      5 C           7.4860   41.5537   10.9621 C.ar    1  UNL1        0.1362
      6 C           9.7828   41.7450   10.3901 C.ar    1  UNL1        0.2264
      7 C           9.1928   41.2434   12.6254 C.ar    1  UNL1        0.1047
      8 C           7.8420   41.2779   12.2879 C.ar    1  UNL1        0.0551
      9 N           8.4685   41.7802   10.0461 N.ar    1  UNL1       -0.1985
     10 N          10.1353   41.4754   11.6765 N.ar    1  UNL1       -0.2118
     11 C           3.8842   41.7992   11.5687 C.3     1  UNL1        0.0240
     12 C           3.3627   42.4521   10.2785 C.3     1  UNL1        0.0328
     13 C           4.2328   42.2048    9.0406 C.3     1  UNL1        0.1303
     14 C           5.7235   42.3462    9.3588 C.3     1  UNL1        0.1212
     15 C           5.0844   40.8872   11.3338 C.3     1  UNL1        0.0923
     16 N           6.1048   41.6007   10.5643 N.pl3   1  UNL1       -0.2906
     17 O           3.9738   40.9359    8.5200 O.3     1  UNL1       -0.3827
     18 H           4.2008   40.2628    9.1806 H       1  UNL1        0.2104
     19 O          11.6506   42.1182    7.1180 O.3     1  UNL1       -0.4337
     20 C          12.8630   42.7076    7.5812 C.3     1  UNL1        0.2187
     21 C          14.0857   41.8650    7.1994 C.3     1  UNL1        0.0884
     22 C          15.3322   42.7012    7.0840 C.ar    1  UNL1       -0.0148
     23 C          15.5918   43.7289    6.1755 C.ar    1  UNL1       -0.0038
     24 C          16.8359   44.3783    6.2387 C.ar    1  UNL1       -0.0003
     25 C          17.7974   43.9909    7.1924 C.ar    1  UNL1       -0.0000
     26 C          17.5287   42.9461    8.0907 C.ar    1  UNL1       -0.0003
     27 C          16.2864   42.3191    8.0097 C.ar    1  UNL1       -0.0038
     28 C          15.7580   41.2157    8.7772 C.ar    1  UNL1       -0.0038
     29 C          16.3468   40.4847    9.8076 C.ar    1  UNL1       -0.0003
     30 C          15.6059   39.4366   10.3764 C.ar    1  UNL1       -0.0000
     31 C          14.3106   39.1410    9.9082 C.ar    1  UNL1       -0.0003
     32 C          13.7397   39.8914    8.8669 C.ar    1  UNL1       -0.0038
     33 C          14.4852   40.9340    8.3140 C.ar    1  UNL1       -0.0148
@<TRIPOS>BOND
     1    11    12    1
     2    12    13    1
     3    13    14    1
     4    13    17    1
     5    14    16    1
     6    15    16    1
     7    15    11    1
     8     6     9   ar
     9     6     2    1
    10     7    10   ar
    11     8     5   ar
    12     1    19    1
    13    20    19    1
    14    20    21    1
    15    21    22    1
    16    21    33    1
    17    23    24   ar
    18    25    26   ar
    19    27    28    1
    20    27    22   ar
    21    29    30   ar
    22    31    32   ar
    23    33    28   ar
    24    16     5    1
    25     2     1   am
    26     5     9   ar
    27     6    10   ar
    28     7     8   ar
    29     1     3    2
    30    22    23   ar
    31    24    25   ar
    32    26    27   ar
    33    28    29   ar
    34    30    31   ar
    35    32    33   ar
    36     2     4    1
    37    17    18    1
@<TRIPOS>MOLECULE
Molport-053-290-294 PubChem-165990344
 33 37 0 0 0
SMALL
GASTEIGER

@<TRIPOS>ATOM
      1 C          10.0227   42.1655    9.9856 C.2     1  UNL1        0.4076
      2 N          10.7067   42.2453    8.7306 N.am    1  UNL1       -0.2196
      3 O          10.6105   41.7314   11.0139 O.2     1  UNL1       -0.2260
      4 H          10.1813   42.5368    7.9507 H       1  UNL1        0.1611
      5 C          13.9912   40.6408    9.0865 C.ar    1  UNL1        0.1362
      6 C          12.0880   41.9385    8.5099 C.ar    1  UNL1        0.2264
      7 C          14.1157   42.2907    7.3435 C.ar    1  UNL1        0.1047
      8 C          14.7385   41.3069    8.1076 C.ar    1  UNL1        0.0551
      9 N          12.6823   40.9751    9.2618 N.ar    1  UNL1       -0.1985
     10 N          12.8082   42.5880    7.5555 N.ar    1  UNL1       -0.2118
     11 C          16.8032   38.7509   10.4732 C.3     1  UNL1        0.0240
     12 C          16.2653   38.2860   11.8361 C.3     1  UNL1        0.0328
     13 C          14.7392   38.1580   11.9106 C.3     1  UNL1        0.1303
     14 C          14.0382   39.3378   11.2325 C.3     1  UNL1        0.1212
     15 C          15.7209   38.8355    9.4012 C.3     1  UNL1        0.0923
     16 N          14.5893   39.6177    9.9012 N.pl3   1  UNL1       -0.2906
     17 O          14.3310   36.9588   11.3245 O.3     1  UNL1       -0.3827
     18 H          14.5830   36.9544   10.3878 H       1  UNL1        0.2104
     19 O           8.6887   42.5690   10.0535 O.3     1  UNL1       -0.4337
     20 C           7.6893   41.7994   10.7173 C.3     1  UNL1        0.2187
     21 C           6.5185   41.4652    9.7855 C.3     1  UNL1        0.0884
     22 C           5.2017   41.4602   10.5152 C.ar    1  UNL1       -0.0148
     23 C           4.7974   40.6087   11.5450 C.ar    1  UNL1       -0.0038
     24 C           3.5105   40.7747   12.0832 C.ar    1  UNL1       -0.0003
     25 C           2.6502   41.7726   11.5850 C.ar    1  UNL1       -0.0000
     26 C           3.0641   42.6128   10.5393 C.ar    1  UNL1       -0.0003
     27 C           4.3462   42.4298   10.0238 C.ar    1  UNL1       -0.0038
     28 C           5.0146   43.1209    8.9461 C.ar    1  UNL1       -0.0038
     29 C           4.5586   44.1588    8.1353 C.ar    1  UNL1       -0.0003
     30 C           5.4204   44.6402    7.1371 C.ar    1  UNL1       -0.0000
     31 C           6.7019   44.0802    6.9683 C.ar    1  UNL1       -0.0003
     32 C           7.1378   43.0331    7.7973 C.ar    1  UNL1       -0.0038
     33 C           6.2728   42.5676    8.7892 C.ar    1  UNL1       -0.0148
@<TRIPOS>BOND
     1    11    12    1
     2    12    13    1
     3    13    14    1
     4    13    17    1
     5    14    16    1
     6    15    16    1
     7    15    11    1
     8     6     9   ar
     9     6     2    1
    10     7    10   ar
    11     8     5   ar
    12     1    19    1
    13    20    19    1
    14    20    21    1
    15    21    22    1
    16    21    33    1
    17    23    24   ar
    18    25    26   ar
    19    27    28    1
    20    27    22   ar
    21    29    30   ar
    22    31    32   ar
    23    33    28   ar
    24    16     5    1
    25     2     1   am
    26     5     9   ar
    27     6    10   ar
    28     7     8   ar
    29     1     3    2
    30    22    23   ar
    31    24    25   ar
    32    26    27   ar
    33    28    29   ar
    34    30    31   ar
    35    32    33   ar
    36     2     4    1
    37    17    18    1
@<TRIPOS>MOLECULE
Molport-053-290-294 PubChem-165990344
 33 37 0 0 0
SMALL
GASTEIGER

@<TRIPOS>ATOM
      1 C          10.2243   41.5958    7.0184 C.2     1  UNL1        0.4076
      2 N          11.2542   42.4874    7.4584 N.am    1  UNL1       -0.2196
      3 O          10.4868   40.3930    6.7432 O.2     1  UNL1       -0.2260
      4 H          11.0023   43.4281    7.6027 H       1  UNL1        0.1611
      5 C          14.1799   40.8221    8.9269 C.ar    1  UNL1        0.1362
      6 C          12.6188   42.1312    7.7070 C.ar    1  UNL1        0.2264
      7 C          14.9258   42.3569    7.2345 C.ar    1  UNL1        0.1047
      8 C          15.2287   41.4062    8.2063 C.ar    1  UNL1        0.0551
      9 N          12.8995   41.2009    8.6571 N.ar    1  UNL1       -0.1985
     10 N          13.6334   42.7011    7.0019 N.ar    1  UNL1       -0.2118
     11 C          13.2455   38.1601   11.2598 C.3     1  UNL1        0.0240
     12 C          14.5340   37.3288   11.3657 C.3     1  UNL1        0.0328
     13 C          15.8228   38.1089   11.0806 C.3     1  UNL1        0.1303
     14 C          15.6689   39.0341    9.8709 C.3     1  UNL1        0.1212
     15 C          13.5100   39.6485   11.0539 C.3     1  UNL1        0.0923
     16 N          14.4415   39.8360    9.9405 N.pl3   1  UNL1       -0.2906
     17 O          16.1916   38.8497   12.2047 O.3     1  UNL1       -0.3827
     18 H          15.4955   39.4932   12.4105 H       1  UNL1        0.2104
     19 O           8.9221   42.0805    6.8904 O.3     1  UNL1       -0.4337
     20 C           8.1419   42.4838    8.0130 C.3     1  UNL1        0.2187
     21 C           7.7572   41.2901    8.8950 C.3     1  UNL1        0.0884
     22 C           8.4673   41.3185   10.2222 C.ar    1  UNL1       -0.0148
     23 C           9.8394   41.2215   10.4606 C.ar    1  UNL1       -0.0038
     24 C          10.2912   41.2625   11.7901 C.ar    1  UNL1       -0.0003
     25 C           9.3758   41.3896   12.8531 C.ar    1  UNL1       -0.0000
     26 C           7.9974   41.4718   12.5999 C.ar    1  UNL1       -0.0003
     27 C           7.5742   41.4312   11.2725 C.ar    1  UNL1       -0.0038
     28 C           6.2367   41.4685   10.7290 C.ar    1  UNL1       -0.0038
     29 C           5.0106   41.5593   11.3858 C.ar    1  UNL1       -0.0003
     30 C           3.8446   41.5583   10.6039 C.ar    1  UNL1       -0.0000
     31 C           3.9252   41.4640    9.2007 C.ar    1  UNL1       -0.0003
     32 C           5.1731   41.3716    8.5623 C.ar    1  UNL1       -0.0038
     33 C           6.3246   41.3790    9.3513 C.ar    1  UNL1       -0.0148
@<TRIPOS>BOND
     1    11    12    1
     2    12    13    1
     3    13    14    1
     4    13    17    1
     5    14    16    1
     6    15    16    1
     7    15    11    1
     8     6     9   ar
     9     6     2    1
    10     7    10   ar
    11     8     5   ar
    12     1    19    1
    13    20    19    1
    14    20    21    1
    15    21    22    1
    16    21    33    1
    17    23    24   ar
    18    25    26   ar
    19    27    28    1
    20    27    22   ar
    21    29    30   ar
    22    31    32   ar
    23    33    28   ar
    24    16     5    1
    25     2     1   am
    26     5     9   ar
    27     6    10   ar
    28     7     8   ar
    29     1     3    2
    30    22    23   ar
    31    24    25   ar
    32    26    27   ar
    33    28    29   ar
    34    30    31   ar
    35    32    33   ar
    36     2     4    1
    37    17    18    1
@<TRIPOS>MOLECULE
Molport-053-290-294 PubChem-165990344
 33 37 0 0 0
SMALL
GASTEIGER

@<TRIPOS>ATOM
      1 C          10.9333   41.5320    6.2779 C.2     1  UNL1        0.4076
      2 N           9.6351   42.1316    6.2117 N.am    1  UNL1       -0.2196
      3 O          11.0694   40.3243    6.6158 O.2     1  UNL1       -0.2260
      4 H           9.5943   43.0919    5.9990 H       1  UNL1        0.1611
      5 C           6.3755   41.2742    7.6710 C.ar    1  UNL1        0.1362
      6 C           8.3904   41.4571    6.4279 C.ar    1  UNL1        0.2264
      7 C           6.8283   39.7789    5.8448 C.ar    1  UNL1        0.1047
      8 C           5.9809   40.1973    6.8678 C.ar    1  UNL1        0.0551
      9 N           7.5727   41.8771    7.4287 N.ar    1  UNL1       -0.1985
     10 N           8.0117   40.4124    5.6425 N.ar    1  UNL1       -0.2118
     11 C           3.7129   43.3294    9.1162 C.3     1  UNL1        0.0240
     12 C           3.2024   42.4620   10.2781 C.3     1  UNL1        0.0328
     13 C           4.2357   41.4818   10.8455 C.3     1  UNL1        0.1303
     14 C           5.0294   40.7896    9.7347 C.3     1  UNL1        0.1212
     15 C           5.2078   43.1646    8.8598 C.3     1  UNL1        0.0923
     16 N           5.5355   41.7430    8.7400 N.pl3   1  UNL1       -0.2906
     17 O           5.1055   42.1507   11.7084 O.3     1  UNL1       -0.3827
     18 H           5.5857   42.8352   11.2168 H       1  UNL1        0.2104
     19 O          12.0511   42.3083    5.9698 O.3     1  UNL1       -0.4337
     20 C          13.3837   41.8481    6.1798 C.3     1  UNL1        0.2187
     21 C          13.9817   42.4124    7.4739 C.3     1  UNL1        0.0884
     22 C          14.3119   41.3260    8.4623 C.ar    1  UNL1       -0.0148
     23 C          13.4297   40.4492    9.0964 C.ar    1  UNL1       -0.0038
     24 C          13.9550   39.5085    9.9979 C.ar    1  UNL1       -0.0003
     25 C          15.3385   39.4623   10.2581 C.ar    1  UNL1       -0.0000
     26 C          16.2128   40.3594    9.6244 C.ar    1  UNL1       -0.0003
     27 C          15.6678   41.2816    8.7325 C.ar    1  UNL1       -0.0038
     28 C          16.3167   42.3233    7.9712 C.ar    1  UNL1       -0.0038
     29 C          17.6623   42.6832    7.9209 C.ar    1  UNL1       -0.0003
     30 C          18.0238   43.7618    7.0982 C.ar    1  UNL1       -0.0000
     31 C          17.0467   44.4527    6.3552 C.ar    1  UNL1       -0.0003
     32 C          15.6962   44.0719    6.4243 C.ar    1  UNL1       -0.0038
     33 C          15.3513   42.9944    7.2421 C.ar    1  UNL1       -0.0148
@<TRIPOS>BOND
     1    11    12    1
     2    12    13    1
     3    13    14    1
     4    13    17    1
     5    14    16    1
     6    15    16    1
     7    15    11    1
     8     6     9   ar
     9     6     2    1
    10     7    10   ar
    11     8     5   ar
    12     1    19    1
    13    20    19    1
    14    20    21    1
    15    21    22    1
    16    21    33    1
    17    23    24   ar
    18    25    26   ar
    19    27    28    1
    20    27    22   ar
    21    29    30   ar
    22    31    32   ar
    23    33    28   ar
    24    16     5    1
    25     2     1   am
    26     5     9   ar
    27     6    10   ar
    28     7     8   ar
    29     1     3    2
    30    22    23   ar
    31    24    25   ar
    32    26    27   ar
    33    28    29   ar
    34    30    31   ar
    35    32    33   ar
    36     2     4    1
    37    17    18    1
@<TRIPOS>MOLECULE
Molport-053-290-294 PubChem-165990344
 33 37 0 0 0
SMALL
GASTEIGER

@<TRIPOS>ATOM
      1 C          11.3453   40.2343   10.2299 C.2     1  UNL1        0.4076
      2 N          11.4162   41.6599   10.3380 N.am    1  UNL1       -0.2196
      3 O          10.2420   39.6569   10.0282 O.2     1  UNL1       -0.2260
      4 H          12.2938   42.0508   10.5533 H       1  UNL1        0.1611
      5 C           7.9806   42.9010    9.9560 C.ar    1  UNL1        0.1362
      6 C          10.3228   42.5675   10.1604 C.ar    1  UNL1        0.2264
      7 C           9.4945   44.7662    9.8845 C.ar    1  UNL1        0.1047
      8 C           8.1903   44.2801    9.8355 C.ar    1  UNL1        0.0551
      9 N           9.0553   42.0794   10.1160 N.ar    1  UNL1       -0.1985
     10 N          10.5330   43.9070   10.0459 N.ar    1  UNL1       -0.2118
     11 C           4.9203   41.5428   11.4363 C.3     1  UNL1        0.0240
     12 C           3.8422   41.9301   10.4113 C.3     1  UNL1        0.0328
     13 C           4.3583   42.1114    8.9790 C.3     1  UNL1        0.1303
     14 C           5.6814   42.8805    8.9469 C.3     1  UNL1        0.1212
     15 C           6.2741   41.2486   10.7972 C.3     1  UNL1        0.0923
     16 N           6.6528   42.3506    9.9113 N.pl3   1  UNL1       -0.2906
     17 O           4.5142   40.8670    8.3660 O.3     1  UNL1       -0.3827
     18 H           5.1714   40.3464    8.8537 H       1  UNL1        0.2104
     19 O          12.5178   39.4890   10.3593 O.3     1  UNL1       -0.4337
     20 C          13.8127   40.0785   10.2725 C.3     1  UNL1        0.2187
     21 C          14.3584   40.0410    8.8402 C.3     1  UNL1        0.0884
     22 C          13.3005   40.3835    7.8253 C.ar    1  UNL1       -0.0148
     23 C          12.1299   39.6788    7.5386 C.ar    1  UNL1       -0.0038
     24 C          11.2785   40.1762    6.5380 C.ar    1  UNL1       -0.0003
     25 C          11.6083   41.3534    5.8383 C.ar    1  UNL1       -0.0000
     26 C          12.7959   42.0443    6.1268 C.ar    1  UNL1       -0.0003
     27 C          13.6227   41.5322    7.1252 C.ar    1  UNL1       -0.0038
     28 C          14.8972   42.0135    7.6047 C.ar    1  UNL1       -0.0038
     29 C          15.6401   43.1215    7.2006 C.ar    1  UNL1       -0.0003
     30 C          16.8728   43.3518    7.8317 C.ar    1  UNL1       -0.0000
     31 C          17.3345   42.4804    8.8375 C.ar    1  UNL1       -0.0003
     32 C          16.5680   41.3691    9.2259 C.ar    1  UNL1       -0.0038
     33 C          15.3419   41.1548    8.5940 C.ar    1  UNL1       -0.0148
@<TRIPOS>BOND
     1    11    12    1
     2    12    13    1
     3    13    14    1
     4    13    17    1
     5    14    16    1
     6    15    16    1
     7    15    11    1
     8     6     9   ar
     9     6     2    1
    10     7    10   ar
    11     8     5   ar
    12     1    19    1
    13    20    19    1
    14    20    21    1
    15    21    22    1
    16    21    33    1
    17    23    24   ar
    18    25    26   ar
    19    27    28    1
    20    27    22   ar
    21    29    30   ar
    22    31    32   ar
    23    33    28   ar
    24    16     5    1
    25     2     1   am
    26     5     9   ar
    27     6    10   ar
    28     7     8   ar
    29     1     3    2
    30    22    23   ar
    31    24    25   ar
    32    26    27   ar
    33    28    29   ar
    34    30    31   ar
    35    32    33   ar
    36     2     4    1
    37    17    18    1
@<TRIPOS>MOLECULE
Molport-053-290-294 PubChem-165990344
 33 37 0 0 0
SMALL
GASTEIGER

@<TRIPOS>ATOM
      1 C           9.9247   41.2604    7.3470 C.2     1  UNL1        0.4076
      2 N           9.9149   42.0966    8.5089 N.am    1  UNL1       -0.2196
      3 O           9.2460   40.1977    7.3116 O.2     1  UNL1       -0.2260
      4 H          10.5084   42.8822    8.5017 H       1  UNL1        0.1611
      5 C           6.9634   41.6235   10.6428 C.ar    1  UNL1        0.1362
      6 C           9.1178   41.8910    9.6806 C.ar    1  UNL1        0.2264
      7 C           8.9355   41.5501   12.0145 C.ar    1  UNL1        0.1047
      8 C           7.5486   41.4815   11.9069 C.ar    1  UNL1        0.0551
      9 N           7.7658   41.8246    9.5605 N.ar    1  UNL1       -0.1985
     10 N           9.6927   41.7518   10.9060 N.ar    1  UNL1       -0.2118
     11 C           3.5125   41.3967   11.8436 C.3     1  UNL1        0.0240
     12 C           2.7195   42.1278   10.7485 C.3     1  UNL1        0.0328
     13 C           3.3824   42.1193    9.3661 C.3     1  UNL1        0.1303
     14 C           4.8864   42.3893    9.4575 C.3     1  UNL1        0.1212
     15 C           4.7325   40.6561   11.3042 C.3     1  UNL1        0.0923
     16 N           5.5359   41.5605   10.4802 N.pl3   1  UNL1       -0.2906
     17 O           3.1544   40.8957    8.7341 O.3     1  UNL1       -0.3827
     18 H           3.5521   40.1824    9.2575 H       1  UNL1        0.2104
     19 O          10.7053   41.6352    6.2529 O.3     1  UNL1       -0.4337
     20 C          12.1163   41.4364    6.2155 C.3     1  UNL1        0.2187
     21 C          12.8295   42.2217    7.3224 C.3     1  UNL1        0.0884
     22 C          13.5477   41.3132    8.2844 C.ar    1  UNL1       -0.0148
     23 C          12.9909   40.3591    9.1379 C.ar    1  UNL1       -0.0038
     24 C          13.8517   39.6197    9.9660 C.ar    1  UNL1       -0.0003
     25 C          15.2415   39.8467    9.9374 C.ar    1  UNL1       -0.0000
     26 C          15.7869   40.8194    9.0846 C.ar    1  UNL1       -0.0003
     27 C          14.9125   41.5381    8.2710 C.ar    1  UNL1       -0.0038
     28 C          15.1885   42.5997    7.3316 C.ar    1  UNL1       -0.0038
     29 C          16.4034   43.1873    6.9833 C.ar    1  UNL1       -0.0003
     30 C          16.3840   44.2277    6.0409 C.ar    1  UNL1       -0.0000
     31 C          15.1673   44.6574    5.4757 C.ar    1  UNL1       -0.0003
     32 C          13.9554   44.0503    5.8447 C.ar    1  UNL1       -0.0038
     33 C          13.9897   43.0135    6.7787 C.ar    1  UNL1       -0.0148
@<TRIPOS>BOND
     1    11    12    1
     2    12    13    1
     3    13    14    1
     4    13    17    1
     5    14    16    1
     6    15    16    1
     7    15    11    1
     8     6     9   ar
     9     6     2    1
    10     7    10   ar
    11     8     5   ar
    12     1    19    1
    13    20    19    1
    14    20    21    1
    15    21    22    1
    16    21    33    1
    17    23    24   ar
    18    25    26   ar
    19    27    28    1
    20    27    22   ar
    21    29    30   ar
    22    31    32   ar
    23    33    28   ar
    24    16     5    1
    25     2     1   am
    26     5     9   ar
    27     6    10   ar
    28     7     8   ar
    29     1     3    2
    30    22    23   ar
    31    24    25   ar
    32    26    27   ar
    33    28    29   ar
    34    30    31   ar
    35    32    33   ar
    36     2     4    1
    37    17    18    1
@<TRIPOS>MOLECULE
Molport-053-290-294 PubChem-165990344
 33 37 0 0 0
SMALL
GASTEIGER

@<TRIPOS>ATOM
      1 C          10.8452   40.5804    9.0343 C.2     1  UNL1        0.4076
      2 N          10.1163   41.1820    7.9591 N.am    1  UNL1       -0.2196
      3 O          10.3091   39.7034    9.7656 O.2     1  UNL1       -0.2260
      4 H          10.5656   41.9014    7.4592 H       1  UNL1        0.1611
      5 C           6.4473   41.0459    7.8615 C.ar    1  UNL1        0.1362
      6 C           8.7910   40.8294    7.5468 C.ar    1  UNL1        0.2264
      7 C           7.3245   39.6698    6.0972 C.ar    1  UNL1        0.1047
      8 C           6.2252   40.1888    6.7769 C.ar    1  UNL1        0.0551
      9 N           7.7277   41.3444    8.2182 N.ar    1  UNL1       -0.1985
     10 N           8.5818   39.9974    6.4906 N.ar    1  UNL1       -0.2118
     11 C           4.0782   41.2046   10.6479 C.3     1  UNL1        0.0240
     12 C           3.7551   42.7047   10.7385 C.3     1  UNL1        0.0328
     13 C           3.9268   43.4756    9.4244 C.3     1  UNL1        0.1303
     14 C           5.2054   43.0651    8.6898 C.3     1  UNL1        0.1212
     15 C           4.3482   40.7368    9.2210 C.3     1  UNL1        0.0923
     16 N           5.3451   41.6070    8.5954 N.pl3   1  UNL1       -0.2906
     17 O           2.8172   43.2719    8.6023 O.3     1  UNL1       -0.3827
     18 H           2.7444   42.3293    8.3851 H       1  UNL1        0.2104
     19 O          12.1598   40.9855    9.2676 O.3     1  UNL1       -0.4337
     20 C          12.7718   42.0511    8.5452 C.3     1  UNL1        0.2187
     21 C          13.9617   41.5616    7.7114 C.3     1  UNL1        0.0884
     22 C          14.6932   42.6999    7.0514 C.ar    1  UNL1       -0.0148
     23 C          14.2087   43.5818    6.0839 C.ar    1  UNL1       -0.0038
     24 C          15.0718   44.5756    5.5931 C.ar    1  UNL1       -0.0003
     25 C          16.3962   44.6687    6.0636 C.ar    1  UNL1       -0.0000
     26 C          16.8751   43.7662    7.0264 C.ar    1  UNL1       -0.0003
     27 C          15.9988   42.7908    7.4995 C.ar    1  UNL1       -0.0038
     28 C          16.2254   41.7324    8.4555 C.ar    1  UNL1       -0.0038
     29 C          17.3798   41.4049    9.1648 C.ar    1  UNL1       -0.0003
     30 C          17.3289   40.2995   10.0288 C.ar    1  UNL1       -0.0000
     31 C          16.1431   39.5510   10.1624 C.ar    1  UNL1       -0.0003
     32 C          14.9931   39.9002    9.4351 C.ar    1  UNL1       -0.0038
     33 C          15.0559   41.0046    8.5836 C.ar    1  UNL1       -0.0148
@<TRIPOS>BOND
     1    11    12    1
     2    12    13    1
     3    13    14    1
     4    13    17    1
     5    14    16    1
     6    15    16    1
     7    15    11    1
     8     6     9   ar
     9     6     2    1
    10     7    10   ar
    11     8     5   ar
    12     1    19    1
    13    20    19    1
    14    20    21    1
    15    21    22    1
    16    21    33    1
    17    23    24   ar
    18    25    26   ar
    19    27    28    1
    20    27    22   ar
    21    29    30   ar
    22    31    32   ar
    23    33    28   ar
    24    16     5    1
    25     2     1   am
    26     5     9   ar
    27     6    10   ar
    28     7     8   ar
    29     1     3    2
    30    22    23   ar
    31    24    25   ar
    32    26    27   ar
    33    28    29   ar
    34    30    31   ar
    35    32    33   ar
    36     2     4    1
    37    17    18    1
@<TRIPOS>MOLECULE
Molport-053-290-294 PubChem-165990344
 33 37 0 0 0
SMALL
GASTEIGER

@<TRIPOS>ATOM
      1 C          11.8886   39.4302   10.4888 C.2     1  UNL1        0.4076
      2 N          11.3811   40.6993   10.9146 N.am    1  UNL1       -0.2196
      3 O          11.1044   38.4803   10.2170 O.2     1  UNL1       -0.2260
      4 H          12.0409   41.3844   11.1687 H       1  UNL1        0.1611
      5 C           8.0257   41.8057    9.9115 C.ar    1  UNL1        0.1362
      6 C           9.9980   41.0597   11.0034 C.ar    1  UNL1        0.2264
      7 C           8.0178   41.3344   12.2682 C.ar    1  UNL1        0.1047
      8 C           7.3338   41.7472   11.1273 C.ar    1  UNL1        0.0551
      9 N           9.3428   41.4592    9.8818 N.ar    1  UNL1       -0.1985
     10 N           9.3307   40.9988   12.1877 N.ar    1  UNL1       -0.2118
     11 C           5.5856   43.7454    7.9917 C.3     1  UNL1        0.0240
     12 C           6.2647   43.8898    6.6203 C.3     1  UNL1        0.0328
     13 C           7.2635   42.7769    6.2818 C.3     1  UNL1        0.1303
     14 C           8.1472   42.4250    7.4811 C.3     1  UNL1        0.1212
     15 C           5.9138   42.4265    8.6849 C.3     1  UNL1        0.0923
     16 N           7.3635   42.2260    8.7061 N.pl3   1  UNL1       -0.2906
     17 O           6.5824   41.6412    5.8407 O.3     1  UNL1       -0.3827
     18 H           6.0049   41.3152    6.5487 H       1  UNL1        0.2104
     19 O          13.2693   39.2561   10.3862 O.3     1  UNL1       -0.4337
     20 C          14.1606   40.3399   10.1357 C.3     1  UNL1        0.2187
     21 C          14.6312   40.3620    8.6767 C.3     1  UNL1        0.0884
     22 C          13.5284   40.7670    7.7353 C.ar    1  UNL1       -0.0148
     23 C          12.3330   40.0934    7.4778 C.ar    1  UNL1       -0.0038
     24 C          11.4396   40.6495    6.5471 C.ar    1  UNL1       -0.0003
     25 C          11.7526   41.8534    5.8863 C.ar    1  UNL1       -0.0000
     26 C          12.9648   42.5130    6.1441 C.ar    1  UNL1       -0.0003
     27 C          13.8333   41.9427    7.0733 C.ar    1  UNL1       -0.0038
     28 C          15.1385   42.3826    7.5074 C.ar    1  UNL1       -0.0038
     29 C          15.8781   43.4977    7.1168 C.ar    1  UNL1       -0.0003
     30 C          17.1453   43.6805    7.6927 C.ar    1  UNL1       -0.0000
     31 C          17.6436   42.7562    8.6316 C.ar    1  UNL1       -0.0003
     32 C          16.8796   41.6388    9.0076 C.ar    1  UNL1       -0.0038
     33 C          15.6192   41.4721    8.4313 C.ar    1  UNL1       -0.0148
@<TRIPOS>BOND
     1    11    12    1
     2    12    13    1
     3    13    14    1
     4    13    17    1
     5    14    16    1
     6    15    16    1
     7    15    11    1
     8     6     9   ar
     9     6     2    1
    10     7    10   ar
    11     8     5   ar
    12     1    19    1
    13    20    19    1
    14    20    21    1
    15    21    22    1
    16    21    33    1
    17    23    24   ar
    18    25    26   ar
    19    27    28    1
    20    27    22   ar
    21    29    30   ar
    22    31    32   ar
    23    33    28   ar
    24    16     5    1
    25     2     1   am
    26     5     9   ar
    27     6    10   ar
    28     7     8   ar
    29     1     3    2
    30    22    23   ar
    31    24    25   ar
    32    26    27   ar
    33    28    29   ar
    34    30    31   ar
    35    32    33   ar
    36     2     4    1
    37    17    18    1
