@<TRIPOS>MOLECULE
MolPort-006-579-784 ChemDiv-V014-3570 MCULE-8107585728 PubChem-46040748 ZINC000037544503 ZINC37544503
 32 35 0 0 0
SMALL
GASTEIGER

@<TRIPOS>ATOM
      1 C           8.7065   42.3475   11.4622 C.3     1  UNL1        0.0971
      2 C           8.7968   40.8967   11.0281 C.3     1  UNL1        0.0435
      3 C          10.2609   40.4590   11.0033 C.3     1  UNL1        0.1015
      4 C          10.6590   42.7267    9.9598 C.2     1  UNL1        0.3112
      5 O          11.3111   43.4740    9.1798 O.2     1  UNL1       -0.2520
      6 N           9.4046   43.1768   10.4911 N.am    1  UNL1       -0.2596
      7 N          11.1375   41.4002   10.2855 N.am    1  UNL1       -0.2430
      8 C          12.4834   40.9731    9.9780 C.ar    1  UNL1        0.0565
      9 C          13.0852   39.9403   10.7162 C.ar    1  UNL1        0.0150
     10 C          14.3907   39.5319   10.4367 C.ar    1  UNL1        0.0026
     11 C          15.1139   40.1559    9.4187 C.ar    1  UNL1        0.0148
     12 C          14.5367   41.1947    8.6757 C.ar    1  UNL1        0.0515
     13 C          13.2284   41.5946    8.9623 C.ar    1  UNL1        0.0296
     14 C          14.7776   42.9676    6.8363 C.2     1  UNL1        0.2256
     15 O          13.6146   43.4297    6.9895 O.2     1  UNL1       -0.2748
     16 N          15.2434   41.8599    7.6208 N.am    1  UNL1       -0.2839
     17 H          16.1438   41.5208    7.4123 H       1  UNL1        0.1549
     18 C          15.6657   43.5487    5.7846 C.3     1  UNL1        0.0768
     19 C          17.0338   43.8490    6.3699 C.3     1  UNL1        0.0096
     20 C          16.0445   44.9715    6.1546 C.3     1  UNL1        0.0096
     21 C           8.7494   44.3694    9.9687 C.3     1  UNL1        0.1218
     22 C           7.3548   42.6475    6.8880 C.ar    1  UNL1        0.1465
     23 C           6.1362   43.3290    6.7344 C.ar    1  UNL1        0.0372
     24 C           5.7757   44.3413    7.6273 C.ar    1  UNL1        0.0028
     25 C           6.6306   44.6813    8.6785 C.ar    1  UNL1       -0.0024
     26 C           7.8487   44.0136    8.8342 C.ar    1  UNL1        0.0007
     27 C           8.2068   42.9973    7.9409 C.ar    1  UNL1        0.0346
     28 O           7.7412   41.6197    6.0176 O.3     1  UNL1       -0.4045
     29 F           7.9456   39.8410    7.4670 F       1  UNL1       -0.1328
     30 F           6.0916   40.0229    6.1826 F       1  UNL1       -0.1328
     31 F           8.0681   39.4911    5.2472 F       1  UNL1       -0.1328
     32 C           7.4570   40.2387    6.2351 C.3     1  UNL1        0.5753
@<TRIPOS>BOND
     1    32    29    1
     2    32    30    1
     3    32    31    1
     4    32    28    1
     5    22    28    1
     6    23    24   ar
     7    25    26   ar
     8    21    26    1
     9    21     6    1
    10     1     6    1
    11     1     2    1
    12     2     3    1
    13     3     7    1
    14     4     6   am
    15     9    10   ar
    16    11    12   ar
    17    12    16    1
    18    18    14    1
    19    18    19    1
    20    19    20    1
    21    20    18    1
    22    13     8   ar
    23    27    22   ar
    24     7     4   am
    25     7     8    1
    26    16    14   am
    27    22    23   ar
    28    24    25   ar
    29    26    27   ar
    30     4     5    2
    31     8     9   ar
    32    10    11   ar
    33    12    13   ar
    34    14    15    2
    35    16    17    1
@<TRIPOS>MOLECULE
MolPort-006-579-784 ChemDiv-V014-3570 MCULE-8107585728 PubChem-46040748 ZINC000037544503 ZINC37544503
 32 35 0 0 0
SMALL
GASTEIGER

@<TRIPOS>ATOM
      1 C           6.0258   40.7569    7.5844 C.3     1  UNL1        0.0971
      2 C           6.9474   40.7232    6.3799 C.3     1  UNL1        0.0435
      3 C           8.3735   40.4131    6.8339 C.3     1  UNL1        0.1015
      4 C           7.8536   42.0176    8.7168 C.2     1  UNL1        0.3112
      5 O           8.2304   42.8861    9.5510 O.2     1  UNL1       -0.2520
      6 N           6.4524   41.8237    8.4776 N.am    1  UNL1       -0.2596
      7 N           8.8199   41.2492    7.9614 N.am    1  UNL1       -0.2430
      8 C          10.2223   41.2259    8.3091 C.ar    1  UNL1        0.0565
      9 C          10.6890   40.3619    9.3138 C.ar    1  UNL1        0.0150
     10 C          12.0396   40.3439    9.6675 C.ar    1  UNL1        0.0026
     11 C          12.9402   41.1950    9.0248 C.ar    1  UNL1        0.0148
     12 C          12.4951   42.0718    8.0261 C.ar    1  UNL1        0.0515
     13 C          11.1414   42.0805    7.6783 C.ar    1  UNL1        0.0296
     14 C          14.7985   42.7857    7.1491 C.2     1  UNL1        0.2256
     15 O          15.4067   41.8032    7.6533 O.2     1  UNL1       -0.2748
     16 N          13.3869   42.9598    7.3399 N.am    1  UNL1       -0.2839
     17 H          12.9887   43.7758    6.9592 H       1  UNL1        0.1549
     18 C          15.5693   43.8129    6.3855 C.3     1  UNL1        0.0768
     19 C          14.6263   44.8734    5.8465 C.3     1  UNL1        0.0096
     20 C          15.1512   43.7953    4.9261 C.3     1  UNL1        0.0096
     21 C           5.4631   42.7627    8.9916 C.3     1  UNL1        0.1218
     22 C           2.6756   42.0627   11.4695 C.ar    1  UNL1        0.1465
     23 C           3.1883   40.9345   12.1308 C.ar    1  UNL1        0.0372
     24 C           4.4323   40.4099   11.7714 C.ar    1  UNL1        0.0028
     25 C           5.1737   41.0095   10.7505 C.ar    1  UNL1       -0.0024
     26 C           4.6746   42.1372   10.0925 C.ar    1  UNL1        0.0007
     27 C           3.4266   42.6594   10.4513 C.ar    1  UNL1        0.0346
     28 O           1.4267   42.6069   11.7971 O.3     1  UNL1       -0.4045
     29 F          -0.4697   42.3204   13.0729 F       1  UNL1       -0.1328
     30 F           1.5384   41.6957   13.9079 F       1  UNL1       -0.1328
     31 F           1.0454   43.8774   13.6604 F       1  UNL1       -0.1328
     32 C           0.8807   42.6190   13.1150 C.3     1  UNL1        0.5753
@<TRIPOS>BOND
     1    32    29    1
     2    32    30    1
     3    32    31    1
     4    32    28    1
     5    22    28    1
     6    23    24   ar
     7    25    26   ar
     8    21    26    1
     9    21     6    1
    10     1     6    1
    11     1     2    1
    12     2     3    1
    13     3     7    1
    14     4     6   am
    15     9    10   ar
    16    11    12   ar
    17    12    16    1
    18    18    14    1
    19    18    19    1
    20    19    20    1
    21    20    18    1
    22    13     8   ar
    23    27    22   ar
    24     7     4   am
    25     7     8    1
    26    16    14   am
    27    22    23   ar
    28    24    25   ar
    29    26    27   ar
    30     4     5    2
    31     8     9   ar
    32    10    11   ar
    33    12    13   ar
    34    14    15    2
    35    16    17    1
@<TRIPOS>MOLECULE
MolPort-006-579-784 ChemDiv-V014-3570 MCULE-8107585728 PubChem-46040748 ZINC000037544503 ZINC37544503
 32 35 0 0 0
SMALL
GASTEIGER

@<TRIPOS>ATOM
      1 C           8.1477   42.1206   10.4365 C.3     1  UNL1        0.0971
      2 C           8.7967   41.4101   11.6093 C.3     1  UNL1        0.0435
      3 C          10.3150   41.4124   11.4339 C.3     1  UNL1        0.1015
      4 C           9.7840   40.8846    9.0194 C.2     1  UNL1        0.3112
      5 O          10.0849   40.3259    7.9289 O.2     1  UNL1       -0.2520
      6 N           8.4574   41.3956    9.2132 N.am    1  UNL1       -0.2596
      7 N          10.7469   40.9715   10.0965 N.am    1  UNL1       -0.2430
      8 C          12.1501   40.6907    9.8955 C.ar    1  UNL1        0.0565
      9 C          12.8137   39.7687   10.7221 C.ar    1  UNL1        0.0150
     10 C          14.1731   39.5031   10.5457 C.ar    1  UNL1        0.0026
     11 C          14.8880   40.1612    9.5435 C.ar    1  UNL1        0.0148
     12 C          14.2483   41.0918    8.7133 C.ar    1  UNL1        0.0515
     13 C          12.8869   41.3490    8.8971 C.ar    1  UNL1        0.0296
     14 C          14.4839   42.9356    6.9443 C.2     1  UNL1        0.2256
     15 O          13.3340   43.4127    7.1430 O.2     1  UNL1       -0.2748
     16 N          14.9448   41.7873    7.6712 N.am    1  UNL1       -0.2839
     17 H          15.8335   41.4403    7.4283 H       1  UNL1        0.1549
     18 C          15.3602   43.5434    5.8978 C.3     1  UNL1        0.0768
     19 C          16.4009   44.4367    6.5483 C.3     1  UNL1        0.0096
     20 C          15.1873   45.0517    5.8894 C.3     1  UNL1        0.0096
     21 C           7.3831   41.0757    8.2816 C.3     1  UNL1        0.1218
     22 C           4.1820   42.9657    9.0438 C.ar    1  UNL1        0.1465
     23 C           4.4171   44.1690    8.3585 C.ar    1  UNL1        0.0372
     24 C           5.6084   44.3593    7.6538 C.ar    1  UNL1        0.0028
     25 C           6.5721   43.3484    7.6270 C.ar    1  UNL1       -0.0024
     26 C           6.3430   42.1447    8.2997 C.ar    1  UNL1        0.0007
     27 C           5.1505   41.9570    9.0081 C.ar    1  UNL1        0.0346
     28 O           3.0036   42.7470    9.7697 O.3     1  UNL1       -0.4045
     29 F           1.7873   42.3911   11.6932 F       1  UNL1       -0.1328
     30 F           2.9974   40.6945   10.8115 F       1  UNL1       -0.1328
     31 F           4.0354   42.4366   11.7873 F       1  UNL1       -0.1328
     32 C           2.9500   42.0614   11.0195 C.3     1  UNL1        0.5753
@<TRIPOS>BOND
     1    32    29    1
     2    32    30    1
     3    32    31    1
     4    32    28    1
     5    22    28    1
     6    23    24   ar
     7    25    26   ar
     8    21    26    1
     9    21     6    1
    10     1     6    1
    11     1     2    1
    12     2     3    1
    13     3     7    1
    14     4     6   am
    15     9    10   ar
    16    11    12   ar
    17    12    16    1
    18    18    14    1
    19    18    19    1
    20    19    20    1
    21    20    18    1
    22    13     8   ar
    23    27    22   ar
    24     7     4   am
    25     7     8    1
    26    16    14   am
    27    22    23   ar
    28    24    25   ar
    29    26    27   ar
    30     4     5    2
    31     8     9   ar
    32    10    11   ar
    33    12    13   ar
    34    14    15    2
    35    16    17    1
@<TRIPOS>MOLECULE
MolPort-006-579-784 ChemDiv-V014-3570 MCULE-8107585728 PubChem-46040748 ZINC000037544503 ZINC37544503
 32 35 0 0 0
SMALL
GASTEIGER

@<TRIPOS>ATOM
      1 C           9.6027   42.2402   10.1272 C.3     1  UNL1        0.0971
      2 C           9.7613   41.1960   11.2161 C.3     1  UNL1        0.0435
      3 C          11.2334   40.8044   11.3406 C.3     1  UNL1        0.1015
      4 C          11.1973   40.8459    8.8133 C.2     1  UNL1        0.3112
      5 O          11.6147   40.4110    7.7049 O.2     1  UNL1       -0.2520
      6 N          10.0217   41.6672    8.8567 N.am    1  UNL1       -0.2596
      7 N          11.8618   40.4847   10.0473 N.am    1  UNL1       -0.2430
      8 C          13.1653   39.8613   10.0627 C.ar    1  UNL1        0.0565
      9 C          13.3156   38.5446   10.5290 C.ar    1  UNL1        0.0150
     10 C          14.5736   37.9396   10.5625 C.ar    1  UNL1        0.0026
     11 C          15.6990   38.6466   10.1355 C.ar    1  UNL1        0.0148
     12 C          15.5737   39.9644    9.6751 C.ar    1  UNL1        0.0515
     13 C          14.3097   40.5600    9.6439 C.ar    1  UNL1        0.0296
     14 C          16.6924   41.8111    8.2884 C.2     1  UNL1        0.2256
     15 O          15.6277   42.1622    7.7116 O.2     1  UNL1       -0.2748
     16 N          16.7030   40.7243    9.2255 N.am    1  UNL1       -0.2839
     17 H          17.5787   40.4740    9.5992 H       1  UNL1        0.1549
     18 C          17.9728   42.5033    7.9510 C.3     1  UNL1        0.0768
     19 C          17.8834   43.9709    8.3283 C.3     1  UNL1        0.0096
     20 C          17.7276   43.5545    6.8835 C.3     1  UNL1        0.0096
     21 C           9.1622   41.8151    7.6889 C.3     1  UNL1        0.1218
     22 C           5.6898   43.3102    8.0160 C.ar    1  UNL1        0.1465
     23 C           5.0799   42.3756    8.8690 C.ar    1  UNL1        0.0372
     24 C           5.7969   41.2701    9.3332 C.ar    1  UNL1        0.0028
     25 C           7.1284   41.0912    8.9503 C.ar    1  UNL1       -0.0024
     26 C           7.7455   42.0206    8.1080 C.ar    1  UNL1        0.0007
     27 C           7.0247   43.1258    7.6410 C.ar    1  UNL1        0.0346
     28 O           4.9960   44.4233    7.5231 O.3     1  UNL1       -0.4045
     29 F           3.5937   45.7605    8.7688 F       1  UNL1       -0.1328
     30 F           2.9509   45.0914    6.7050 F       1  UNL1       -0.1328
     31 F           3.0447   43.6099    8.3963 F       1  UNL1       -0.1328
     32 C           3.6409   44.7289    7.8478 C.3     1  UNL1        0.5753
@<TRIPOS>BOND
     1    32    29    1
     2    32    30    1
     3    32    31    1
     4    32    28    1
     5    22    28    1
     6    23    24   ar
     7    25    26   ar
     8    21    26    1
     9    21     6    1
    10     1     6    1
    11     1     2    1
    12     2     3    1
    13     3     7    1
    14     4     6   am
    15     9    10   ar
    16    11    12   ar
    17    12    16    1
    18    18    14    1
    19    18    19    1
    20    19    20    1
    21    20    18    1
    22    13     8   ar
    23    27    22   ar
    24     7     4   am
    25     7     8    1
    26    16    14   am
    27    22    23   ar
    28    24    25   ar
    29    26    27   ar
    30     4     5    2
    31     8     9   ar
    32    10    11   ar
    33    12    13   ar
    34    14    15    2
    35    16    17    1
@<TRIPOS>MOLECULE
MolPort-006-579-784 ChemDiv-V014-3570 MCULE-8107585728 PubChem-46040748 ZINC000037544503 ZINC37544503
 32 35 0 0 0
SMALL
GASTEIGER

@<TRIPOS>ATOM
      1 C          11.1477   40.6003    6.2674 C.3     1  UNL1        0.0971
      2 C          11.5412   41.9832    5.7836 C.3     1  UNL1        0.0435
      3 C          13.0431   42.1871    5.9802 C.3     1  UNL1        0.1015
      4 C          12.6506   41.0513    8.2042 C.2     1  UNL1        0.3112
      5 O          12.9427   40.8976    9.4220 O.2     1  UNL1       -0.2520
      6 N          11.4299   40.4985    7.6915 N.am    1  UNL1       -0.2596
      7 N          13.5083   41.8217    7.3292 N.am    1  UNL1       -0.2430
      8 C          14.8474   42.2070    7.7120 C.ar    1  UNL1        0.0565
      9 C          15.3503   43.4698    7.3571 C.ar    1  UNL1        0.0150
     10 C          16.6485   43.8445    7.7087 C.ar    1  UNL1        0.0026
     11 C          17.4632   42.9579    8.4151 C.ar    1  UNL1        0.0148
     12 C          16.9854   41.6894    8.7716 C.ar    1  UNL1        0.0515
     13 C          15.6836   41.3250    8.4163 C.ar    1  UNL1        0.0296
     14 C          17.3196   39.6902   10.3450 C.2     1  UNL1        0.2256
     15 O          16.0892   39.5331   10.5704 O.2     1  UNL1       -0.2748
     16 N          17.7879   40.7504    9.4988 N.am    1  UNL1       -0.2839
     17 H          18.7638   40.8425    9.4081 H       1  UNL1        0.1549
     18 C          18.3088   38.7907   11.0121 C.3     1  UNL1        0.0768
     19 C          19.5405   38.6367   10.1383 C.3     1  UNL1        0.0096
     20 C          18.5073   37.5341   10.1836 C.3     1  UNL1        0.0096
     21 C          10.4064   39.9730    8.5863 C.3     1  UNL1        0.1218
     22 C           6.9951   41.3409    7.6420 C.ar    1  UNL1        0.1465
     23 C           6.5452   40.3423    6.7625 C.ar    1  UNL1        0.0372
     24 C           7.3478   39.2335    6.4829 C.ar    1  UNL1        0.0028
     25 C           8.6044   39.1133    7.0813 C.ar    1  UNL1       -0.0024
     26 C           9.0567   40.0984    7.9638 C.ar    1  UNL1        0.0007
     27 C           8.2528   41.2104    8.2401 C.ar    1  UNL1        0.0346
     28 O           6.2204   42.4711    7.9348 O.3     1  UNL1       -0.4045
     29 F           7.4063   44.4388    7.7677 F       1  UNL1       -0.1328
     30 F           6.5278   43.5068    5.9023 F       1  UNL1       -0.1328
     31 F           5.1798   44.4469    7.4397 F       1  UNL1       -0.1328
     32 C           6.3402   43.7202    7.2562 C.3     1  UNL1        0.5753
@<TRIPOS>BOND
     1    32    29    1
     2    32    30    1
     3    32    31    1
     4    32    28    1
     5    22    28    1
     6    23    24   ar
     7    25    26   ar
     8    21    26    1
     9    21     6    1
    10     1     6    1
    11     1     2    1
    12     2     3    1
    13     3     7    1
    14     4     6   am
    15     9    10   ar
    16    11    12   ar
    17    12    16    1
    18    18    14    1
    19    18    19    1
    20    19    20    1
    21    20    18    1
    22    13     8   ar
    23    27    22   ar
    24     7     4   am
    25     7     8    1
    26    16    14   am
    27    22    23   ar
    28    24    25   ar
    29    26    27   ar
    30     4     5    2
    31     8     9   ar
    32    10    11   ar
    33    12    13   ar
    34    14    15    2
    35    16    17    1
@<TRIPOS>MOLECULE
MolPort-006-579-784 ChemDiv-V014-3570 MCULE-8107585728 PubChem-46040748 ZINC000037544503 ZINC37544503
 32 35 0 0 0
SMALL
GASTEIGER

@<TRIPOS>ATOM
      1 C           6.1388   40.5974    7.6316 C.3     1  UNL1        0.0971
      2 C           6.7634   40.4146    6.2613 C.3     1  UNL1        0.0435
      3 C           8.2702   40.2049    6.4084 C.3     1  UNL1        0.1015
      4 C           8.1036   42.0476    8.1309 C.2     1  UNL1        0.3112
      5 O           8.6115   43.0339    8.7320 O.2     1  UNL1       -0.2520
      6 N           6.6975   41.7896    8.2517 N.am    1  UNL1       -0.2596
      7 N           8.9140   41.2024    7.2803 N.am    1  UNL1       -0.2430
      8 C          10.3578   41.2608    7.2925 C.ar    1  UNL1        0.0565
      9 C          11.0499   41.9023    6.2517 C.ar    1  UNL1        0.0150
     10 C          12.4453   41.9498    6.2468 C.ar    1  UNL1        0.0026
     11 C          13.1672   41.3504    7.2805 C.ar    1  UNL1        0.0148
     12 C          12.4977   40.6969    8.3241 C.ar    1  UNL1        0.0515
     13 C          11.1006   40.6568    8.3204 C.ar    1  UNL1        0.0296
     14 C          12.7584   39.9506   10.7653 C.2     1  UNL1        0.2256
     15 O          11.6745   40.4704   11.1454 O.2     1  UNL1       -0.2748
     16 N          13.2006   40.0712    9.4054 N.am    1  UNL1       -0.2839
     17 H          14.0799   39.6830    9.1925 H       1  UNL1        0.1549
     18 C          13.6216   39.2435   11.7590 C.3     1  UNL1        0.0768
     19 C          14.8777   38.7282   11.0801 C.3     1  UNL1        0.0096
     20 C          13.7441   37.7766   11.3875 C.3     1  UNL1        0.0096
     21 C           5.8005   42.7688    8.8525 C.3     1  UNL1        0.1218
     22 C           2.9831   42.0258   11.2836 C.ar    1  UNL1        0.1465
     23 C           3.5284   40.9451   11.9962 C.ar    1  UNL1        0.0372
     24 C           4.8036   40.4661   11.6861 C.ar    1  UNL1        0.0028
     25 C           5.5440   41.0643   10.6636 C.ar    1  UNL1       -0.0024
     26 C           5.0122   42.1452    9.9546 C.ar    1  UNL1        0.0007
     27 C           3.7330   42.6217   10.2642 C.ar    1  UNL1        0.0346
     28 O           1.7029   42.5230   11.5612 O.3     1  UNL1       -0.4045
     29 F          -0.2304   42.2575   12.7850 F       1  UNL1       -0.1328
     30 F           1.7495   41.6277   13.6812 F       1  UNL1       -0.1328
     31 F           1.2768   43.8103   13.4032 F       1  UNL1       -0.1328
     32 C           1.1200   42.5486   12.8630 C.3     1  UNL1        0.5753
@<TRIPOS>BOND
     1    32    29    1
     2    32    30    1
     3    32    31    1
     4    32    28    1
     5    22    28    1
     6    23    24   ar
     7    25    26   ar
     8    21    26    1
     9    21     6    1
    10     1     6    1
    11     1     2    1
    12     2     3    1
    13     3     7    1
    14     4     6   am
    15     9    10   ar
    16    11    12   ar
    17    12    16    1
    18    18    14    1
    19    18    19    1
    20    19    20    1
    21    20    18    1
    22    13     8   ar
    23    27    22   ar
    24     7     4   am
    25     7     8    1
    26    16    14   am
    27    22    23   ar
    28    24    25   ar
    29    26    27   ar
    30     4     5    2
    31     8     9   ar
    32    10    11   ar
    33    12    13   ar
    34    14    15    2
    35    16    17    1
@<TRIPOS>MOLECULE
MolPort-006-579-784 ChemDiv-V014-3570 MCULE-8107585728 PubChem-46040748 ZINC000037544503 ZINC37544503
 32 35 0 0 0
SMALL
GASTEIGER

@<TRIPOS>ATOM
      1 C          12.4944   40.4538   10.0995 C.3     1  UNL1        0.0971
      2 C          11.4426   41.5092   10.3845 C.3     1  UNL1        0.0435
      3 C          10.0807   41.0225    9.8904 C.3     1  UNL1        0.1015
      4 C          11.3823   40.2079    7.8823 C.2     1  UNL1        0.3112
      5 O          11.4459   39.9539    6.6480 O.2     1  UNL1       -0.2520
      6 N          12.5864   40.2531    8.6609 N.am    1  UNL1       -0.2596
      7 N          10.1132   40.5035    8.5123 N.am    1  UNL1       -0.2430
      8 C           8.8523   40.2539    7.8519 C.ar    1  UNL1        0.0565
      9 C           8.7777   39.3370    6.7901 C.ar    1  UNL1        0.0150
     10 C           7.5671   39.1013    6.1357 C.ar    1  UNL1        0.0026
     11 C           6.4160   39.7848    6.5311 C.ar    1  UNL1        0.0148
     12 C           6.4691   40.7108    7.5819 C.ar    1  UNL1        0.0515
     13 C           7.6857   40.9379    8.2315 C.ar    1  UNL1        0.0296
     14 C           4.8633   41.6031    9.3735 C.2     1  UNL1        0.2256
     15 O           5.4647   41.0479   10.3325 O.2     1  UNL1       -0.2748
     16 N           5.3104   41.4316    8.0206 N.am    1  UNL1       -0.2839
     17 H           4.7632   41.8539    7.3195 H       1  UNL1        0.1549
     18 C           3.6347   42.4088    9.6451 C.3     1  UNL1        0.0768
     19 C           3.0430   42.0150   10.9864 C.3     1  UNL1        0.0096
     20 C           2.4217   41.4982    9.7090 C.3     1  UNL1        0.0096
     21 C          13.8969   40.2510    8.0229 C.3     1  UNL1        0.1218
     22 C          15.6478   43.5257    7.2416 C.ar    1  UNL1        0.1465
     23 C          14.7584   44.0838    6.3086 C.ar    1  UNL1        0.0372
     24 C          13.5984   43.3975    5.9406 C.ar    1  UNL1        0.0028
     25 C          13.3177   42.1501    6.5034 C.ar    1  UNL1       -0.0024
     26 C          14.1934   41.5910    7.4384 C.ar    1  UNL1        0.0007
     27 C          15.3568   42.2781    7.8034 C.ar    1  UNL1        0.0346
     28 O          16.8255   44.1818    7.6235 O.3     1  UNL1       -0.4045
     29 F          19.0730   44.6823    7.6887 F       1  UNL1       -0.1328
     30 F          18.4168   42.5191    7.5883 F       1  UNL1       -0.1328
     31 F          18.1674   43.8611    5.7991 F       1  UNL1       -0.1328
     32 C          18.1287   43.8088    7.1790 C.3     1  UNL1        0.5753
@<TRIPOS>BOND
     1    32    29    1
     2    32    30    1
     3    32    31    1
     4    32    28    1
     5    22    28    1
     6    23    24   ar
     7    25    26   ar
     8    21    26    1
     9    21     6    1
    10     1     6    1
    11     1     2    1
    12     2     3    1
    13     3     7    1
    14     4     6   am
    15     9    10   ar
    16    11    12   ar
    17    12    16    1
    18    18    14    1
    19    18    19    1
    20    19    20    1
    21    20    18    1
    22    13     8   ar
    23    27    22   ar
    24     7     4   am
    25     7     8    1
    26    16    14   am
    27    22    23   ar
    28    24    25   ar
    29    26    27   ar
    30     4     5    2
    31     8     9   ar
    32    10    11   ar
    33    12    13   ar
    34    14    15    2
    35    16    17    1
@<TRIPOS>MOLECULE
MolPort-006-579-784 ChemDiv-V014-3570 MCULE-8107585728 PubChem-46040748 ZINC000037544503 ZINC37544503
 32 35 0 0 0
SMALL
GASTEIGER

@<TRIPOS>ATOM
      1 C          11.1664   40.3749    6.5215 C.3     1  UNL1        0.0971
      2 C          11.4164   41.8337    6.1886 C.3     1  UNL1        0.0435
      3 C          12.9181   42.1164    6.2184 C.3     1  UNL1        0.1015
      4 C          12.8927   40.6744    8.2944 C.2     1  UNL1        0.3112
      5 O          13.3555   40.3839    9.4317 O.2     1  UNL1       -0.2520
      6 N          11.6448   40.1080    7.8698 N.am    1  UNL1       -0.2596
      7 N          13.5811   41.6118    7.4330 N.am    1  UNL1       -0.2430
      8 C          14.9375   42.0379    7.6917 C.ar    1  UNL1        0.0565
      9 C          15.4316   43.2191    7.1136 C.ar    1  UNL1        0.0150
     10 C          16.7457   43.6303    7.3450 C.ar    1  UNL1        0.0026
     11 C          17.5850   42.8614    8.1533 C.ar    1  UNL1        0.0148
     12 C          17.1159   41.6746    8.7328 C.ar    1  UNL1        0.0515
     13 C          15.7982   41.2730    8.4962 C.ar    1  UNL1        0.0296
     14 C          17.7456   39.4727    9.8901 C.2     1  UNL1        0.2256
     15 O          16.7317   38.8482    9.4759 O.2     1  UNL1       -0.2748
     16 N          17.9437   40.8576    9.5707 N.am    1  UNL1       -0.2839
     17 H          18.7316   41.2928    9.9694 H       1  UNL1        0.1549
     18 C          18.7292   38.7735   10.7712 C.3     1  UNL1        0.0768
     19 C          19.1736   37.4748   10.1231 C.3     1  UNL1        0.0096
     20 C          18.1548   37.4486   11.2395 C.3     1  UNL1        0.0096
     21 C          10.7819   39.3984    8.8060 C.3     1  UNL1        0.1218
     22 C           8.3335   42.0001   10.0853 C.ar    1  UNL1        0.1465
     23 C           8.7676   42.1395   11.4138 C.ar    1  UNL1        0.0372
     24 C           9.8499   41.3923   11.8852 C.ar    1  UNL1        0.0028
     25 C          10.5073   40.5022   11.0325 C.ar    1  UNL1       -0.0024
     26 C          10.0868   40.3631    9.7068 C.ar    1  UNL1        0.0007
     27 C           9.0002   41.1098    9.2370 C.ar    1  UNL1        0.0346
     28 O           7.2444   42.7253    9.5841 O.3     1  UNL1       -0.4045
     29 F           5.9267   41.8132    7.9295 F       1  UNL1       -0.1328
     30 F           5.7651   41.0227   10.0435 F       1  UNL1       -0.1328
     31 F           4.9840   43.0721    9.5392 F       1  UNL1       -0.1328
     32 C           5.9771   42.1502    9.2705 C.3     1  UNL1        0.5753
@<TRIPOS>BOND
     1    32    29    1
     2    32    30    1
     3    32    31    1
     4    32    28    1
     5    22    28    1
     6    23    24   ar
     7    25    26   ar
     8    21    26    1
     9    21     6    1
    10     1     6    1
    11     1     2    1
    12     2     3    1
    13     3     7    1
    14     4     6   am
    15     9    10   ar
    16    11    12   ar
    17    12    16    1
    18    18    14    1
    19    18    19    1
    20    19    20    1
    21    20    18    1
    22    13     8   ar
    23    27    22   ar
    24     7     4   am
    25     7     8    1
    26    16    14   am
    27    22    23   ar
    28    24    25   ar
    29    26    27   ar
    30     4     5    2
    31     8     9   ar
    32    10    11   ar
    33    12    13   ar
    34    14    15    2
    35    16    17    1
@<TRIPOS>MOLECULE
MolPort-006-579-784 ChemDiv-V014-3570 MCULE-8107585728 PubChem-46040748 ZINC000037544503 ZINC37544503
 32 35 0 0 0
SMALL
GASTEIGER

@<TRIPOS>ATOM
      1 C          11.3141   40.5079    6.1276 C.3     1  UNL1        0.0971
      2 C          11.0074   39.2944    6.9847 C.3     1  UNL1        0.0435
      3 C           9.9111   39.6415    7.9915 C.3     1  UNL1        0.1015
      4 C          11.1846   41.8099    8.2492 C.2     1  UNL1        0.3112
      5 O          11.5559   42.7840    8.9601 O.2     1  UNL1       -0.2520
      6 N          11.8127   41.5765    6.9806 N.am    1  UNL1       -0.2596
      7 N          10.1669   40.8954    8.7210 N.am    1  UNL1       -0.2430
      8 C           9.3393   41.1936    9.8674 C.ar    1  UNL1        0.0565
      9 C           9.8578   41.0694   11.1672 C.ar    1  UNL1        0.0150
     10 C           9.0609   41.3399   12.2813 C.ar    1  UNL1        0.0026
     11 C           7.7323   41.7324   12.1096 C.ar    1  UNL1        0.0148
     12 C           7.1914   41.8539   10.8223 C.ar    1  UNL1        0.0515
     13 C           7.9984   41.5825    9.7138 C.ar    1  UNL1        0.0296
     14 C           4.6497   41.5447   10.9913 C.2     1  UNL1        0.2256
     15 O           4.7228   40.4121   11.5404 O.2     1  UNL1       -0.2748
     16 N           5.8334   42.2565   10.6021 N.am    1  UNL1       -0.2839
     17 H           5.6985   43.1121   10.1341 H       1  UNL1        0.1549
     18 C           3.3081   42.1309   10.6934 C.3     1  UNL1        0.0768
     19 C           2.7077   41.4570    9.4729 C.3     1  UNL1        0.0096
     20 C           3.3347   42.8264    9.3442 C.3     1  UNL1        0.0096
     21 C          13.0263   42.2874    6.5984 C.3     1  UNL1        0.1218
     22 C          16.4740   42.1216    8.1753 C.ar    1  UNL1        0.1465
     23 C          16.3077   41.0425    9.0591 C.ar    1  UNL1        0.0372
     24 C          15.0824   40.3758    9.1370 C.ar    1  UNL1        0.0028
     25 C          14.0154   40.7808    8.3314 C.ar    1  UNL1       -0.0024
     26 C          14.1745   41.8486    7.4436 C.ar    1  UNL1        0.0007
     27 C          15.4016   42.5177    7.3692 C.ar    1  UNL1        0.0346
     28 O          17.6854   42.8191    8.0809 O.3     1  UNL1       -0.4045
     29 F          16.7945   44.8124    7.3464 F       1  UNL1       -0.1328
     30 F          19.0301   44.6366    7.6488 F       1  UNL1       -0.1328
     31 F          18.0309   43.5592    5.9444 F       1  UNL1       -0.1328
     32 C          17.8855   43.9661    7.2565 C.3     1  UNL1        0.5753
@<TRIPOS>BOND
     1    32    29    1
     2    32    30    1
     3    32    31    1
     4    32    28    1
     5    22    28    1
     6    23    24   ar
     7    25    26   ar
     8    21    26    1
     9    21     6    1
    10     1     6    1
    11     1     2    1
    12     2     3    1
    13     3     7    1
    14     4     6   am
    15     9    10   ar
    16    11    12   ar
    17    12    16    1
    18    18    14    1
    19    18    19    1
    20    19    20    1
    21    20    18    1
    22    13     8   ar
    23    27    22   ar
    24     7     4   am
    25     7     8    1
    26    16    14   am
    27    22    23   ar
    28    24    25   ar
    29    26    27   ar
    30     4     5    2
    31     8     9   ar
    32    10    11   ar
    33    12    13   ar
    34    14    15    2
    35    16    17    1
@<TRIPOS>MOLECULE
MolPort-006-579-784 ChemDiv-V014-3570 MCULE-8107585728 PubChem-46040748 ZINC000037544503 ZINC37544503
 32 35 0 0 0
SMALL
GASTEIGER

@<TRIPOS>ATOM
      1 C           8.1822   41.1614    8.5584 C.3     1  UNL1        0.0971
      2 C           9.1852   41.5676    7.4952 C.3     1  UNL1        0.0435
      3 C          10.3712   40.6038    7.5142 C.3     1  UNL1        0.1015
      4 C          10.1634   40.7960   10.0262 C.2     1  UNL1        0.3112
      5 O          10.6922   40.7981   11.1718 O.2     1  UNL1       -0.2520
      6 N           8.8138   41.2557    9.8662 N.am    1  UNL1       -0.2596
      7 N          10.9192   40.3820    8.8634 N.am    1  UNL1       -0.2430
      8 C          12.1873   39.6985    8.9761 C.ar    1  UNL1        0.0565
      9 C          12.2321   38.2966    9.0561 C.ar    1  UNL1        0.0150
     10 C          13.4517   37.6284    9.1813 C.ar    1  UNL1        0.0026
     11 C          14.6426   38.3548    9.2344 C.ar    1  UNL1        0.0148
     12 C          14.6209   39.7545    9.1656 C.ar    1  UNL1        0.0515
     13 C          13.3949   40.4134    9.0385 C.ar    1  UNL1        0.0296
     14 C          16.1167   41.7089    8.4394 C.2     1  UNL1        0.2256
     15 O          15.3145   42.1284    7.5619 O.2     1  UNL1       -0.2748
     16 N          15.8205   40.5377    9.2139 N.am    1  UNL1       -0.2839
     17 H          16.5149   40.2405    9.8454 H       1  UNL1        0.1549
     18 C          17.4200   42.4119    8.6389 C.3     1  UNL1        0.0768
     19 C          17.2260   43.9112    8.5028 C.3     1  UNL1        0.0096
     20 C          17.8257   43.1234    7.3606 C.3     1  UNL1        0.0096
     21 C           8.1203   41.9472   10.9456 C.3     1  UNL1        0.1218
     22 C           4.6351   42.7711    9.6906 C.ar    1  UNL1        0.1465
     23 C           3.8847   41.7615   10.3156 C.ar    1  UNL1        0.0372
     24 C           4.5113   40.8231   11.1394 C.ar    1  UNL1        0.0028
     25 C           5.8914   40.8877   11.3463 C.ar    1  UNL1       -0.0024
     26 C           6.6446   41.8938   10.7346 C.ar    1  UNL1        0.0007
     27 C           6.0159   42.8310    9.9068 C.ar    1  UNL1        0.0346
     28 O           4.0400   43.7204    8.8494 O.3     1  UNL1       -0.4045
     29 F           3.8508   45.2109    7.1032 F       1  UNL1       -0.1328
     30 F           5.7204   45.2210    8.3778 F       1  UNL1       -0.1328
     31 F           5.3224   43.5137    6.9667 F       1  UNL1       -0.1328
     32 C           4.7346   44.4255    7.8219 C.3     1  UNL1        0.5753
@<TRIPOS>BOND
     1    32    29    1
     2    32    30    1
     3    32    31    1
     4    32    28    1
     5    22    28    1
     6    23    24   ar
     7    25    26   ar
     8    21    26    1
     9    21     6    1
    10     1     6    1
    11     1     2    1
    12     2     3    1
    13     3     7    1
    14     4     6   am
    15     9    10   ar
    16    11    12   ar
    17    12    16    1
    18    18    14    1
    19    18    19    1
    20    19    20    1
    21    20    18    1
    22    13     8   ar
    23    27    22   ar
    24     7     4   am
    25     7     8    1
    26    16    14   am
    27    22    23   ar
    28    24    25   ar
    29    26    27   ar
    30     4     5    2
    31     8     9   ar
    32    10    11   ar
    33    12    13   ar
    34    14    15    2
    35    16    17    1
