@<TRIPOS>MOLECULE
MolPort-003-025-648 2716636 CSSS03437097008 LN01396109 MCULE-3410807198 PubChem-2152310 ZINC000002716636
 31 34 0 0 0
SMALL
GASTEIGER

@<TRIPOS>ATOM
      1 O           8.3382   41.9844   11.4376 O.2     1  UNL1       -0.2698
      2 C           8.3583   42.0469   10.1785 C.2     1  UNL1        0.2509
      3 N           7.1372   42.1529    9.4325 N.am    1  UNL1       -0.2606
      4 H           7.2206   42.2082    8.4531 H       1  UNL1        0.1571
      5 S           4.6280   43.3584    9.6277 S.2     1  UNL1       -0.0513
      6 C           5.8089   42.1864    9.9684 C.ar    1  UNL1        0.1659
      7 C           3.5084   42.6182   10.6333 C.ar    1  UNL1        0.0527
      8 C           4.0795   41.4899   11.2035 C.ar    1  UNL1        0.1230
      9 C           3.3444   40.6933   12.0867 C.ar    1  UNL1        0.1566
     10 C           2.0174   41.0731   12.3794 C.ar    1  UNL1        0.0385
     11 C           1.4523   42.2213   11.7930 C.ar    1  UNL1        0.0037
     12 C           2.2014   43.0097   10.9071 C.ar    1  UNL1        0.0083
     13 N           5.3634   41.2446   10.8345 N.ar    1  UNL1       -0.2208
     14 O           3.9319   39.5579   12.6576 O.3     1  UNL1       -0.4739
     15 C           5.2668   39.1494   12.3813 C.3     1  UNL1        0.2056
     16 C           5.8479   38.4192   13.5771 C.3     1  UNL1        0.0512
     17 C          12.1052   41.9564    8.1061 C.ar    1  UNL1        0.1222
     18 C          11.9679   42.7118    9.2754 C.ar    1  UNL1        0.0201
     19 C          10.7460   42.7399    9.9531 C.ar    1  UNL1        0.0059
     20 C           9.6482   42.0148    9.4666 C.ar    1  UNL1        0.0538
     21 C           9.7913   41.2610    8.2929 C.ar    1  UNL1        0.0059
     22 C          11.0136   41.2321    7.6159 C.ar    1  UNL1        0.0201
     23 S          13.6369   41.9366    7.2416 S.O2    1  UNL1        0.0634
     24 O          14.2743   43.2956    7.3316 O.2     1  UNL1       -0.1528
     25 O          13.3853   41.6267    5.7917 O.2     1  UNL1       -0.1528
     26 O          16.1666   39.1167    9.2761 O.3     1  UNL1       -0.3507
     27 C          13.9121   39.8185    8.7168 C.3     1  UNL1        0.1279
     28 C          14.8093   38.9376    9.6011 C.3     1  UNL1        0.1613
     29 C          16.4869   40.4462    9.6102 C.3     1  UNL1        0.1613
     30 C          15.6884   41.4412    8.7520 C.3     1  UNL1        0.1279
     31 N          14.7105   40.7462    7.9070 N.3     1  UNL1       -0.1504
@<TRIPOS>BOND
     1    23    17    1
     2    23    31    1
     3    18    19   ar
     4    20    21   ar
     5    20     2    1
     6    22    17   ar
     7     2     3   am
     8     6     5   ar
     9     7     5   ar
    10     8     9   ar
    11     8    13   ar
    12     9    14    1
    13    10    11   ar
    14    12     7   ar
    15    15    14    1
    16    15    16    1
    17    27    31    1
    18    27    28    1
    19    28    26    1
    20    29    26    1
    21    29    30    1
    22    30    31    1
    23     3     6    1
    24    23    24    2
    25    23    25    2
    26    17    18   ar
    27    19    20   ar
    28    21    22   ar
    29     2     1    2
    30     6    13   ar
    31     7     8   ar
    32     9    10   ar
    33    11    12   ar
    34     3     4    1
@<TRIPOS>MOLECULE
MolPort-003-025-648 2716636 CSSS03437097008 LN01396109 MCULE-3410807198 PubChem-2152310 ZINC000002716636
 31 34 0 0 0
SMALL
GASTEIGER

@<TRIPOS>ATOM
      1 O           9.3229   40.4492    9.3284 O.2     1  UNL1       -0.2698
      2 C           9.3979   41.6522    8.9584 C.2     1  UNL1        0.2509
      3 N           8.3026   42.5532    9.1760 N.am    1  UNL1       -0.2606
      4 H           8.4270   43.4818    8.8736 H       1  UNL1        0.1571
      5 S           6.8309   41.3215   11.2019 S.2     1  UNL1       -0.0513
      6 C           7.0464   42.2385    9.7889 C.ar    1  UNL1        0.1659
      7 C           5.1630   41.4832   11.1317 C.ar    1  UNL1        0.0527
      8 C           4.8218   42.2383   10.0192 C.ar    1  UNL1        0.1230
      9 C           3.4813   42.5175    9.7366 C.ar    1  UNL1        0.1566
     10 C           2.4964   42.0075   10.6089 C.ar    1  UNL1        0.0385
     11 C           2.8587   41.2423   11.7334 C.ar    1  UNL1        0.0037
     12 C           4.2080   40.9721   12.0054 C.ar    1  UNL1        0.0083
     13 N           5.8702   42.6628    9.2672 N.ar    1  UNL1       -0.2208
     14 O           3.1488   43.2791    8.6099 O.3     1  UNL1       -0.4739
     15 C           3.4378   44.6679    8.4957 C.3     1  UNL1        0.2056
     16 C           4.4488   44.9020    7.3894 C.3     1  UNL1        0.0512
     17 C          12.9566   43.0683    7.0422 C.ar    1  UNL1        0.1222
     18 C          12.7172   43.3677    8.3875 C.ar    1  UNL1        0.0201
     19 C          11.5570   42.9040    9.0137 C.ar    1  UNL1        0.0059
     20 C          10.6232   42.1383    8.2999 C.ar    1  UNL1        0.0538
     21 C          10.8677   41.8431    6.9510 C.ar    1  UNL1        0.0059
     22 C          12.0285   42.3059    6.3252 C.ar    1  UNL1        0.0201
     23 S          14.4067   43.6685    6.2479 S.O2    1  UNL1        0.0634
     24 O          14.1508   45.0581    5.7335 O.2     1  UNL1       -0.1528
     25 O          14.7349   42.7831    5.0774 O.2     1  UNL1       -0.1528
     26 O          17.9417   43.4793    8.6889 O.3     1  UNL1       -0.3507
     27 C          16.9085   44.2453    6.6313 C.3     1  UNL1        0.1279
     28 C          18.2109   44.0025    7.4108 C.3     1  UNL1        0.1613
     29 C          17.3722   42.2074    8.4897 C.3     1  UNL1        0.1613
     30 C          16.0238   42.3122    7.7583 C.3     1  UNL1        0.1279
     31 N          15.7511   43.6937    7.3455 N.3     1  UNL1       -0.1504
@<TRIPOS>BOND
     1    23    17    1
     2    23    31    1
     3    18    19   ar
     4    20    21   ar
     5    20     2    1
     6    22    17   ar
     7     2     3   am
     8     6     5   ar
     9     7     5   ar
    10     8     9   ar
    11     8    13   ar
    12     9    14    1
    13    10    11   ar
    14    12     7   ar
    15    15    14    1
    16    15    16    1
    17    27    31    1
    18    27    28    1
    19    28    26    1
    20    29    26    1
    21    29    30    1
    22    30    31    1
    23     3     6    1
    24    23    24    2
    25    23    25    2
    26    17    18   ar
    27    19    20   ar
    28    21    22   ar
    29     2     1    2
    30     6    13   ar
    31     7     8   ar
    32     9    10   ar
    33    11    12   ar
    34     3     4    1
@<TRIPOS>MOLECULE
MolPort-003-025-648 2716636 CSSS03437097008 LN01396109 MCULE-3410807198 PubChem-2152310 ZINC000002716636
 31 34 0 0 0
SMALL
GASTEIGER

@<TRIPOS>ATOM
      1 O           2.9441   40.5500   12.6282 O.2     1  UNL1       -0.2698
      2 C           2.9056   41.6576   12.0271 C.2     1  UNL1        0.2509
      3 N           1.9391   42.6536   12.3915 N.am    1  UNL1       -0.2606
      4 H           1.9672   43.5011   11.8914 H       1  UNL1        0.1571
      5 S          -0.6354   41.9360   13.1943 S.2     1  UNL1       -0.0513
      6 C           0.9373   42.5397   13.4095 C.ar    1  UNL1        0.1659
      7 C          -1.0217   42.1816   14.8077 C.ar    1  UNL1        0.0527
      8 C           0.0735   42.7237   15.4641 C.ar    1  UNL1        0.1230
      9 C           0.0054   43.0222   16.8283 C.ar    1  UNL1        0.1566
     10 C          -1.2032   42.7605   17.5079 C.ar    1  UNL1        0.0385
     11 C          -2.3060   42.2107   16.8275 C.ar    1  UNL1        0.0037
     12 C          -2.2220   41.9145   15.4590 C.ar    1  UNL1        0.0083
     13 N           1.1697   42.9245   14.6875 N.ar    1  UNL1       -0.2208
     14 O           1.1165   43.5709   17.4799 O.3     1  UNL1       -0.4739
     15 C           1.2689   44.9655   17.7190 C.3     1  UNL1        0.2056
     16 C           2.6104   45.4419   17.1953 C.3     1  UNL1        0.0512
     17 C           5.6943   42.4632    8.8782 C.ar    1  UNL1        0.1222
     18 C           5.9566   41.4495    9.8057 C.ar    1  UNL1        0.0201
     19 C           5.0458   41.1850   10.8322 C.ar    1  UNL1        0.0059
     20 C           3.8646   41.9334   10.9429 C.ar    1  UNL1        0.0538
     21 C           3.6081   42.9496   10.0113 C.ar    1  UNL1        0.0059
     22 C           4.5185   43.2134    8.9842 C.ar    1  UNL1        0.0201
     23 S           6.8496   42.8102    7.5980 S.O2    1  UNL1        0.0634
     24 O           6.3949   44.0239    6.8357 O.2     1  UNL1       -0.1528
     25 O           6.9026   41.6462    6.6474 O.2     1  UNL1       -0.1528
     26 O          10.6354   43.3232    9.5717 O.3     1  UNL1       -0.3507
     27 C           9.0115   41.7950    8.6151 C.3     1  UNL1        0.1279
     28 C          10.2606   41.9692    9.4937 C.3     1  UNL1        0.1613
     29 C           9.5957   43.9887   10.2485 C.3     1  UNL1        0.1613
     30 C           8.2866   43.9345    9.4437 C.3     1  UNL1        0.1279
     31 N           8.4330   43.0934    8.2502 N.3     1  UNL1       -0.1504
@<TRIPOS>BOND
     1    23    17    1
     2    23    31    1
     3    18    19   ar
     4    20    21   ar
     5    20     2    1
     6    22    17   ar
     7     2     3   am
     8     6     5   ar
     9     7     5   ar
    10     8     9   ar
    11     8    13   ar
    12     9    14    1
    13    10    11   ar
    14    12     7   ar
    15    15    14    1
    16    15    16    1
    17    27    31    1
    18    27    28    1
    19    28    26    1
    20    29    26    1
    21    29    30    1
    22    30    31    1
    23     3     6    1
    24    23    24    2
    25    23    25    2
    26    17    18   ar
    27    19    20   ar
    28    21    22   ar
    29     2     1    2
    30     6    13   ar
    31     7     8   ar
    32     9    10   ar
    33    11    12   ar
    34     3     4    1
@<TRIPOS>MOLECULE
MolPort-003-025-648 2716636 CSSS03437097008 LN01396109 MCULE-3410807198 PubChem-2152310 ZINC000002716636
 31 34 0 0 0
SMALL
GASTEIGER

@<TRIPOS>ATOM
      1 O           7.5300   41.4628   11.0525 O.2     1  UNL1       -0.2698
      2 C           7.2619   41.4756    9.8206 C.2     1  UNL1        0.2509
      3 N           5.9195   41.7020    9.3673 N.am    1  UNL1       -0.2606
      4 H           5.7770   41.7103    8.3932 H       1  UNL1        0.1571
      5 S           3.8186   43.3266   10.2240 S.2     1  UNL1       -0.0513
      6 C           4.7653   41.9172   10.1885 C.ar    1  UNL1        0.1659
      7 C           2.7932   42.6880   11.3875 C.ar    1  UNL1        0.0527
      8 C           3.2128   41.4071   11.7153 C.ar    1  UNL1        0.1230
      9 C           2.5183   40.6564   12.6687 C.ar    1  UNL1        0.1566
     10 C           1.3903   41.2401   13.2834 C.ar    1  UNL1        0.0385
     11 C           0.9775   42.5414   12.9403 C.ar    1  UNL1        0.0037
     12 C           1.6831   43.2817   11.9804 C.ar    1  UNL1        0.0083
     13 N           4.3130   40.9724   11.0477 N.ar    1  UNL1       -0.2208
     14 O           2.9522   39.3653   12.9929 O.3     1  UNL1       -0.4739
     15 C           4.0477   38.7268   12.3468 C.3     1  UNL1        0.2056
     16 C           5.2159   38.5966   13.3055 C.3     1  UNL1        0.0512
     17 C          10.3903   40.8448    6.9646 C.ar    1  UNL1        0.1222
     18 C           9.0581   40.6073    6.6103 C.ar    1  UNL1        0.0201
     19 C           8.0368   40.8150    7.5413 C.ar    1  UNL1        0.0059
     20 C           8.3378   41.2599    8.8371 C.ar    1  UNL1        0.0538
     21 C           9.6753   41.4944    9.1871 C.ar    1  UNL1        0.0059
     22 C          10.6965   41.2877    8.2556 C.ar    1  UNL1        0.0201
     23 S          11.6780   40.5644    5.7996 S.O2    1  UNL1        0.0634
     24 O          12.7843   39.7898    6.4608 O.2     1  UNL1       -0.1528
     25 O          12.2321   41.8859    5.3435 O.2     1  UNL1       -0.1528
     26 O           9.9104   38.2332    2.6481 O.3     1  UNL1       -0.3507
     27 C           9.7211   40.1294    4.1504 C.3     1  UNL1        0.1279
     28 C           9.0113   39.1811    3.1707 C.3     1  UNL1        0.1613
     29 C          10.3198   37.4301    3.7294 C.3     1  UNL1        0.1613
     30 C          11.0963   38.2544    4.7694 C.3     1  UNL1        0.1279
     31 N          11.0912   39.6810    4.4256 N.3     1  UNL1       -0.1504
@<TRIPOS>BOND
     1    23    17    1
     2    23    31    1
     3    18    19   ar
     4    20    21   ar
     5    20     2    1
     6    22    17   ar
     7     2     3   am
     8     6     5   ar
     9     7     5   ar
    10     8     9   ar
    11     8    13   ar
    12     9    14    1
    13    10    11   ar
    14    12     7   ar
    15    15    14    1
    16    15    16    1
    17    27    31    1
    18    27    28    1
    19    28    26    1
    20    29    26    1
    21    29    30    1
    22    30    31    1
    23     3     6    1
    24    23    24    2
    25    23    25    2
    26    17    18   ar
    27    19    20   ar
    28    21    22   ar
    29     2     1    2
    30     6    13   ar
    31     7     8   ar
    32     9    10   ar
    33    11    12   ar
    34     3     4    1
@<TRIPOS>MOLECULE
MolPort-003-025-648 2716636 CSSS03437097008 LN01396109 MCULE-3410807198 PubChem-2152310 ZINC000002716636
 31 34 0 0 0
SMALL
GASTEIGER

@<TRIPOS>ATOM
      1 O           5.2545   40.6292    8.5612 O.2     1  UNL1       -0.2698
      2 C           5.4399   41.3347    9.5895 C.2     1  UNL1        0.2509
      3 N           6.7372   41.8738    9.8815 N.am    1  UNL1       -0.2606
      4 H           6.8146   42.4249   10.6937 H       1  UNL1        0.1571
      5 S           8.2128   42.3043    7.5525 S.2     1  UNL1       -0.0513
      6 C           7.9313   41.6915    9.1111 C.ar    1  UNL1        0.1659
      7 C           9.7451   41.6253    7.4904 C.ar    1  UNL1        0.0527
      8 C           9.9933   40.9444    8.6732 C.ar    1  UNL1        0.1230
      9 C          11.2115   40.2872    8.8700 C.ar    1  UNL1        0.1566
     10 C          12.1691   40.3350    7.8347 C.ar    1  UNL1        0.0385
     11 C          11.9019   41.0297    6.6400 C.ar    1  UNL1        0.0037
     12 C          10.6758   41.6861    6.4577 C.ar    1  UNL1        0.0083
     13 N           8.9837   40.9795    9.5812 N.ar    1  UNL1       -0.2208
     14 O          11.4501   39.6016   10.0672 O.3     1  UNL1       -0.4739
     15 C          12.2298   40.1383   11.1298 C.3     1  UNL1        0.2056
     16 C          13.5909   39.4697   11.1685 C.3     1  UNL1        0.0512
     17 C           2.1618   42.1380   12.2258 C.ar    1  UNL1        0.1222
     18 C           2.9361   40.9860   12.3994 C.ar    1  UNL1        0.0201
     19 C           4.0072   40.7246   11.5407 C.ar    1  UNL1        0.0059
     20 C           4.3131   41.6115   10.4978 C.ar    1  UNL1        0.0538
     21 C           3.5321   42.7636   10.3275 C.ar    1  UNL1        0.0059
     22 C           2.4616   43.0255   11.1871 C.ar    1  UNL1        0.0201
     23 S           0.8011   42.4575   13.2938 S.O2    1  UNL1        0.0634
     24 O           0.9550   41.6441   14.5492 O.2     1  UNL1       -0.1528
     25 O          -0.4735   42.0412   12.6130 O.2     1  UNL1       -0.1528
     26 O           0.3784   46.5135   14.6578 O.3     1  UNL1       -0.3507
     27 C           1.3932   44.3341   14.9868 C.3     1  UNL1        0.1279
     28 C           1.0829   45.7178   15.5800 C.3     1  UNL1        0.1613
     29 C          -0.8697   45.8920   14.4631 C.3     1  UNL1        0.1613
     30 C          -0.7040   44.5053   13.8197 C.3     1  UNL1        0.1279
     31 N           0.7129   44.1425   13.7006 N.3     1  UNL1       -0.1504
@<TRIPOS>BOND
     1    23    17    1
     2    23    31    1
     3    18    19   ar
     4    20    21   ar
     5    20     2    1
     6    22    17   ar
     7     2     3   am
     8     6     5   ar
     9     7     5   ar
    10     8     9   ar
    11     8    13   ar
    12     9    14    1
    13    10    11   ar
    14    12     7   ar
    15    15    14    1
    16    15    16    1
    17    27    31    1
    18    27    28    1
    19    28    26    1
    20    29    26    1
    21    29    30    1
    22    30    31    1
    23     3     6    1
    24    23    24    2
    25    23    25    2
    26    17    18   ar
    27    19    20   ar
    28    21    22   ar
    29     2     1    2
    30     6    13   ar
    31     7     8   ar
    32     9    10   ar
    33    11    12   ar
    34     3     4    1
@<TRIPOS>MOLECULE
MolPort-003-025-648 2716636 CSSS03437097008 LN01396109 MCULE-3410807198 PubChem-2152310 ZINC000002716636
 31 34 0 0 0
SMALL
GASTEIGER

@<TRIPOS>ATOM
      1 O          10.8564   40.9978   13.4361 O.2     1  UNL1       -0.2698
      2 C           9.6541   41.3630   13.3321 C.2     1  UNL1        0.2509
      3 N           9.0582   41.5557   12.0411 N.am    1  UNL1       -0.2606
      4 H           8.1132   41.8313   12.0269 H       1  UNL1        0.1571
      5 S          10.1642   42.6370    9.7184 S.2     1  UNL1       -0.0513
      6 C           9.6990   41.3879   10.7707 C.ar    1  UNL1        0.1659
      7 C          10.7725   41.5522    8.5932 C.ar    1  UNL1        0.0527
      8 C          10.5969   40.2585    9.0620 C.ar    1  UNL1        0.1230
      9 C          11.0244   39.1656    8.3019 C.ar    1  UNL1        0.1566
     10 C          11.6302   39.4189    7.0529 C.ar    1  UNL1        0.0385
     11 C          11.8006   40.7376    6.5909 C.ar    1  UNL1        0.0037
     12 C          11.3686   41.8242    7.3656 C.ar    1  UNL1        0.0083
     13 N           9.9988   40.1621   10.2776 N.ar    1  UNL1       -0.2208
     14 O          10.8402   37.8643    8.7843 O.3     1  UNL1       -0.4739
     15 C          11.4262   37.3912    9.9919 C.3     1  UNL1        0.2056
     16 C          12.6341   36.5272    9.6830 C.3     1  UNL1        0.0512
     17 C           7.3280   42.0224   16.8670 C.ar    1  UNL1        0.1222
     18 C           7.6980   43.1024   16.0587 C.ar    1  UNL1        0.0201
     19 C           8.4553   42.8875   14.9040 C.ar    1  UNL1        0.0059
     20 C           8.8524   41.5902   14.5474 C.ar    1  UNL1        0.0538
     21 C           8.4802   40.5117   15.3627 C.ar    1  UNL1        0.0059
     22 C           7.7220   40.7268   16.5168 C.ar    1  UNL1        0.0201
     23 S           6.3920   42.2944   18.3312 S.O2    1  UNL1        0.0634
     24 O           6.4305   41.0548   19.1814 O.2     1  UNL1       -0.1528
     25 O           4.9608   42.5713   17.9620 O.2     1  UNL1       -0.1528
     26 O           7.6545   45.5402   20.8536 O.3     1  UNL1       -0.3507
     27 C           7.4365   43.1425   20.5513 C.3     1  UNL1        0.1279
     28 C           7.6984   44.3037   21.5237 C.3     1  UNL1        0.1613
     29 C           6.3301   45.7070   20.4062 C.3     1  UNL1        0.1613
     30 C           5.9528   44.6288   19.3770 C.3     1  UNL1        0.1279
     31 N           7.0241   43.6365   19.2323 N.3     1  UNL1       -0.1504
@<TRIPOS>BOND
     1    23    17    1
     2    23    31    1
     3    18    19   ar
     4    20    21   ar
     5    20     2    1
     6    22    17   ar
     7     2     3   am
     8     6     5   ar
     9     7     5   ar
    10     8     9   ar
    11     8    13   ar
    12     9    14    1
    13    10    11   ar
    14    12     7   ar
    15    15    14    1
    16    15    16    1
    17    27    31    1
    18    27    28    1
    19    28    26    1
    20    29    26    1
    21    29    30    1
    22    30    31    1
    23     3     6    1
    24    23    24    2
    25    23    25    2
    26    17    18   ar
    27    19    20   ar
    28    21    22   ar
    29     2     1    2
    30     6    13   ar
    31     7     8   ar
    32     9    10   ar
    33    11    12   ar
    34     3     4    1
@<TRIPOS>MOLECULE
MolPort-003-025-648 2716636 CSSS03437097008 LN01396109 MCULE-3410807198 PubChem-2152310 ZINC000002716636
 31 34 0 0 0
SMALL
GASTEIGER

@<TRIPOS>ATOM
      1 O           9.1205   42.4574   10.4765 O.2     1  UNL1       -0.2698
      2 C           9.5232   42.0236    9.3632 C.2     1  UNL1        0.2509
      3 N           8.7331   42.2050    8.1793 N.am    1  UNL1       -0.2606
      4 H           9.1073   41.8526    7.3396 H       1  UNL1        0.1571
      5 S           7.0439   44.1100    7.0372 S.2     1  UNL1       -0.0513
      6 C           7.4550   42.8468    8.0952 C.ar    1  UNL1        0.1659
      7 C           5.4774   44.1866    7.6315 C.ar    1  UNL1        0.0527
      8 C           5.3186   43.2366    8.6298 C.ar    1  UNL1        0.1230
      9 C           4.0928   43.0988    9.2879 C.ar    1  UNL1        0.1566
     10 C           3.0343   43.9519    8.9102 C.ar    1  UNL1        0.0385
     11 C           3.2114   44.9115    7.8957 C.ar    1  UNL1        0.0037
     12 C           4.4466   45.0367    7.2428 C.ar    1  UNL1        0.0083
     13 N           6.4199   42.4858    8.8913 N.ar    1  UNL1       -0.2208
     14 O           3.9448   42.1377   10.2952 O.3     1  UNL1       -0.4739
     15 C           4.7965   41.0045   10.4216 C.3     1  UNL1        0.2056
     16 C           5.8172   41.2379   11.5191 C.3     1  UNL1        0.0512
     17 C          13.2903   40.0013    9.1157 C.ar    1  UNL1        0.1222
     18 C          12.1001   39.2669    9.1470 C.ar    1  UNL1        0.0201
     19 C          10.8706   39.9265    9.2257 C.ar    1  UNL1        0.0059
     20 C          10.8190   41.3274    9.2765 C.ar    1  UNL1        0.0538
     21 C          12.0155   42.0581    9.2468 C.ar    1  UNL1        0.0059
     22 C          13.2450   41.3984    9.1671 C.ar    1  UNL1        0.0201
     23 S          14.8390   39.1712    9.0371 S.O2    1  UNL1        0.0634
     24 O          15.9146   40.1613    8.6852 O.2     1  UNL1       -0.1528
     25 O          14.7877   38.1244    7.9586 O.2     1  UNL1       -0.1528
     26 O          15.8667   36.9494   12.5724 O.3     1  UNL1       -0.3507
     27 C          16.6137   37.9681   10.5006 C.3     1  UNL1        0.1279
     28 C          16.9344   37.0085   11.6578 C.3     1  UNL1        0.1613
     29 C          14.7820   36.3717   11.8857 C.3     1  UNL1        0.1613
     30 C          14.3229   37.2660   10.7222 C.3     1  UNL1        0.1279
     31 N          15.2175   38.4170   10.5539 N.3     1  UNL1       -0.1504
@<TRIPOS>BOND
     1    23    17    1
     2    23    31    1
     3    18    19   ar
     4    20    21   ar
     5    20     2    1
     6    22    17   ar
     7     2     3   am
     8     6     5   ar
     9     7     5   ar
    10     8     9   ar
    11     8    13   ar
    12     9    14    1
    13    10    11   ar
    14    12     7   ar
    15    15    14    1
    16    15    16    1
    17    27    31    1
    18    27    28    1
    19    28    26    1
    20    29    26    1
    21    29    30    1
    22    30    31    1
    23     3     6    1
    24    23    24    2
    25    23    25    2
    26    17    18   ar
    27    19    20   ar
    28    21    22   ar
    29     2     1    2
    30     6    13   ar
    31     7     8   ar
    32     9    10   ar
    33    11    12   ar
    34     3     4    1
@<TRIPOS>MOLECULE
MolPort-003-025-648 2716636 CSSS03437097008 LN01396109 MCULE-3410807198 PubChem-2152310 ZINC000002716636
 31 34 0 0 0
SMALL
GASTEIGER

@<TRIPOS>ATOM
      1 O           3.3382   43.7520   12.0205 O.2     1  UNL1       -0.2698
      2 C           3.1180   42.7318   11.3131 C.2     1  UNL1        0.2509
      3 N           1.9894   41.8871   11.5805 N.am    1  UNL1       -0.2606
      4 H           1.8664   41.1119   10.9862 H       1  UNL1        0.1571
      5 S           0.7937   41.0160   13.9467 S.2     1  UNL1       -0.0513
      6 C           1.0234   42.0572   12.6249 C.ar    1  UNL1        0.1659
      7 C          -0.4476   41.9620   14.5608 C.ar    1  UNL1        0.0527
      8 C          -0.6492   43.0520   13.7269 C.ar    1  UNL1        0.1230
      9 C          -1.6358   43.9974   14.0228 C.ar    1  UNL1        0.1566
     10 C          -2.4149   43.8062   15.1836 C.ar    1  UNL1        0.0385
     11 C          -2.1985   42.6944   16.0195 C.ar    1  UNL1        0.0037
     12 C          -1.2035   41.7552   15.7108 C.ar    1  UNL1        0.0083
     13 N           0.1704   43.1096   12.6453 N.ar    1  UNL1       -0.2208
     14 O          -1.8315   45.0925   13.1727 O.3     1  UNL1       -0.4739
     15 C          -1.4651   46.4231   13.5199 C.3     1  UNL1        0.2056
     16 C          -2.4725   47.4066   12.9554 C.3     1  UNL1        0.0512
     17 C           5.7596   41.7881    8.0769 C.ar    1  UNL1        0.1222
     18 C           5.3626   40.7899    8.9729 C.ar    1  UNL1        0.0201
     19 C           4.4990   41.0970   10.0278 C.ar    1  UNL1        0.0059
     20 C           4.0256   42.4063   10.1988 C.ar    1  UNL1        0.0538
     21 C           4.4287   43.4032    9.2987 C.ar    1  UNL1        0.0059
     22 C           5.2915   43.0957    8.2432 C.ar    1  UNL1        0.0201
     23 S           6.8625   41.4066    6.7609 S.O2    1  UNL1        0.0634
     24 O           6.6693   42.3999    5.6487 O.2     1  UNL1       -0.1528
     25 O           6.5481   40.0349    6.2307 O.2     1  UNL1       -0.1528
     26 O          10.8016   41.4221    8.4855 O.3     1  UNL1       -0.3507
     27 C           8.8408   40.1361    7.8613 C.3     1  UNL1        0.1279
     28 C          10.1573   40.1825    8.6534 C.3     1  UNL1        0.1613
     29 C           9.9667   42.3908    9.0739 C.3     1  UNL1        0.1613
     30 C           8.6210   42.4847    8.3360 C.3     1  UNL1        0.1279
     31 N           8.5119   41.4515    7.2997 N.3     1  UNL1       -0.1504
@<TRIPOS>BOND
     1    23    17    1
     2    23    31    1
     3    18    19   ar
     4    20    21   ar
     5    20     2    1
     6    22    17   ar
     7     2     3   am
     8     6     5   ar
     9     7     5   ar
    10     8     9   ar
    11     8    13   ar
    12     9    14    1
    13    10    11   ar
    14    12     7   ar
    15    15    14    1
    16    15    16    1
    17    27    31    1
    18    27    28    1
    19    28    26    1
    20    29    26    1
    21    29    30    1
    22    30    31    1
    23     3     6    1
    24    23    24    2
    25    23    25    2
    26    17    18   ar
    27    19    20   ar
    28    21    22   ar
    29     2     1    2
    30     6    13   ar
    31     7     8   ar
    32     9    10   ar
    33    11    12   ar
    34     3     4    1
@<TRIPOS>MOLECULE
MolPort-003-025-648 2716636 CSSS03437097008 LN01396109 MCULE-3410807198 PubChem-2152310 ZINC000002716636
 31 34 0 0 0
SMALL
GASTEIGER

@<TRIPOS>ATOM
      1 O          12.4362   41.0636    8.7184 O.2     1  UNL1       -0.2698
      2 C          11.3356   40.4752    8.8978 C.2     1  UNL1        0.2509
      3 N          11.2940   39.0623    9.1443 N.am    1  UNL1       -0.2606
      4 H          10.4050   38.6641    9.2866 H       1  UNL1        0.1571
      5 S          12.3586   36.4864    9.0080 S.2     1  UNL1       -0.0513
      6 C          12.4152   38.1723    9.2044 C.ar    1  UNL1        0.1659
      7 C          14.0143   36.3384    9.2301 C.ar    1  UNL1        0.0527
      8 C          14.5614   37.5939    9.4511 C.ar    1  UNL1        0.1230
      9 C          15.9352   37.7401    9.6655 C.ar    1  UNL1        0.1566
     10 C          16.7385   36.5801    9.6541 C.ar    1  UNL1        0.0385
     11 C          16.1681   35.3130    9.4291 C.ar    1  UNL1        0.0037
     12 C          14.7883   35.1821    9.2134 C.ar    1  UNL1        0.0083
     13 N          13.6724   38.6207    9.4367 N.ar    1  UNL1       -0.2208
     14 O          16.4759   39.0121    9.8893 O.3     1  UNL1       -0.4739
     15 C          17.8383   39.3350    9.6344 C.3     1  UNL1        0.2056
     16 C          18.6032   39.4411   10.9401 C.3     1  UNL1        0.0512
     17 C           7.6861   42.7136    8.7851 C.ar    1  UNL1        0.1222
     18 C           8.7933   43.2109    9.4805 C.ar    1  UNL1        0.0201
     19 C           9.9850   42.4818    9.5157 C.ar    1  UNL1        0.0059
     20 C          10.0806   41.2465    8.8580 C.ar    1  UNL1        0.0538
     21 C           8.9667   40.7521    8.1642 C.ar    1  UNL1        0.0059
     22 C           7.7754   41.4819    8.1282 C.ar    1  UNL1        0.0201
     23 S           6.1796   43.6212    8.7571 S.O2    1  UNL1        0.0634
     24 O           5.5855   43.5528    7.3775 O.2     1  UNL1       -0.1528
     25 O           6.4616   45.0625    9.0805 O.2     1  UNL1       -0.1528
     26 O           3.3801   41.6804   11.3815 O.3     1  UNL1       -0.3507
     27 C           5.6425   41.7835   10.5101 C.3     1  UNL1        0.1279
     28 C           4.5936   40.9740   11.2895 C.3     1  UNL1        0.1613
     29 C           2.8806   41.7916   10.0700 C.3     1  UNL1        0.1613
     30 C           3.8194   42.6318    9.1887 C.3     1  UNL1        0.1279
     31 N           5.0486   42.9834    9.9089 N.3     1  UNL1       -0.1504
@<TRIPOS>BOND
     1    23    17    1
     2    23    31    1
     3    18    19   ar
     4    20    21   ar
     5    20     2    1
     6    22    17   ar
     7     2     3   am
     8     6     5   ar
     9     7     5   ar
    10     8     9   ar
    11     8    13   ar
    12     9    14    1
    13    10    11   ar
    14    12     7   ar
    15    15    14    1
    16    15    16    1
    17    27    31    1
    18    27    28    1
    19    28    26    1
    20    29    26    1
    21    29    30    1
    22    30    31    1
    23     3     6    1
    24    23    24    2
    25    23    25    2
    26    17    18   ar
    27    19    20   ar
    28    21    22   ar
    29     2     1    2
    30     6    13   ar
    31     7     8   ar
    32     9    10   ar
    33    11    12   ar
    34     3     4    1
@<TRIPOS>MOLECULE
MolPort-003-025-648 2716636 CSSS03437097008 LN01396109 MCULE-3410807198 PubChem-2152310 ZINC000002716636
 31 34 0 0 0
SMALL
GASTEIGER

@<TRIPOS>ATOM
      1 O          10.1258   40.9690   14.3842 O.2     1  UNL1       -0.2698
      2 C           8.9478   41.4167   14.3429 C.2     1  UNL1        0.2509
      3 N           8.3142   41.6913   13.0851 N.am    1  UNL1       -0.2606
      4 H           7.3903   42.0295   13.1198 H       1  UNL1        0.1571
      5 S           8.3307   42.2388   10.3488 S.2     1  UNL1       -0.0513
      6 C           8.8898   41.5232   11.7839 C.ar    1  UNL1        0.1659
      7 C           9.5365   41.5112    9.4382 C.ar    1  UNL1        0.0527
      8 C          10.3335   40.7362   10.2679 C.ar    1  UNL1        0.1230
      9 C          11.4164   40.0226    9.7456 C.ar    1  UNL1        0.1566
     10 C          11.6670   40.1120    8.3599 C.ar    1  UNL1        0.0385
     11 C          10.8486   40.9023    7.5309 C.ar    1  UNL1        0.0037
     12 C           9.7669   41.6144    8.0697 C.ar    1  UNL1        0.0083
     13 N           9.9766   40.7407   11.5785 N.ar    1  UNL1       -0.2208
     14 O          12.2127   39.2422   10.5924 O.3     1  UNL1       -0.4739
     15 C          13.3670   39.7439   11.2568 C.3     1  UNL1        0.2056
     16 C          14.6175   39.3764   10.4808 C.3     1  UNL1        0.0512
     17 C           6.8176   42.1116   17.9927 C.ar    1  UNL1        0.1222
     18 C           7.4242   43.1776   17.3201 C.ar    1  UNL1        0.0201
     19 C           8.1177   42.9516   16.1280 C.ar    1  UNL1        0.0059
     20 C           8.2137   41.6565   15.5978 C.ar    1  UNL1        0.0538
     21 C           7.6052   40.5915   16.2775 C.ar    1  UNL1        0.0059
     22 C           6.9109   40.8178   17.4691 C.ar    1  UNL1        0.0201
     23 S           5.9618   42.3921   19.5036 S.O2    1  UNL1        0.0634
     24 O           6.9611   42.5935   20.6090 O.2     1  UNL1       -0.1528
     25 O           5.1273   41.1855   19.8336 O.2     1  UNL1       -0.1528
     26 O           3.3388   45.7972   19.6302 O.3     1  UNL1       -0.3507
     27 C           5.4398   44.7997   20.3221 C.3     1  UNL1        0.1279
     28 C           4.4155   45.9274   20.5267 C.3     1  UNL1        0.1613
     29 C           2.6713   44.6067   19.9755 C.3     1  UNL1        0.1613
     30 C           3.5771   43.3823   19.7646 C.3     1  UNL1        0.1279
     31 N           4.9359   43.7873   19.3867 N.3     1  UNL1       -0.1504
@<TRIPOS>BOND
     1    23    17    1
     2    23    31    1
     3    18    19   ar
     4    20    21   ar
     5    20     2    1
     6    22    17   ar
     7     2     3   am
     8     6     5   ar
     9     7     5   ar
    10     8     9   ar
    11     8    13   ar
    12     9    14    1
    13    10    11   ar
    14    12     7   ar
    15    15    14    1
    16    15    16    1
    17    27    31    1
    18    27    28    1
    19    28    26    1
    20    29    26    1
    21    29    30    1
    22    30    31    1
    23     3     6    1
    24    23    24    2
    25    23    25    2
    26    17    18   ar
    27    19    20   ar
    28    21    22   ar
    29     2     1    2
    30     6    13   ar
    31     7     8   ar
    32     9    10   ar
    33    11    12   ar
    34     3     4    1
