@<TRIPOS>MOLECULE
Molport-043-873-113 MCULE-7353733872 PubChem-123128074
 21 21 0 0 0
SMALL
GASTEIGER

@<TRIPOS>ATOM
      1 C           4.2547   42.7606   10.0615 C.ar    1  UNL1        0.1404
      2 C           3.3436   41.8599   10.6355 C.ar    1  UNL1        0.0370
      3 C           3.8050   40.7241   11.3047 C.ar    1  UNL1        0.0044
      4 C           5.1773   40.4822   11.4038 C.ar    1  UNL1        0.0149
      5 C           6.0978   41.3742   10.8336 C.ar    1  UNL1        0.0535
      6 C           5.6269   42.5099   10.1660 C.ar    1  UNL1        0.0516
      7 C           8.3938   41.6271   11.9499 C.2     1  UNL1        0.3215
      8 O           7.9467   42.2545   12.9476 O.2     1  UNL1       -0.2657
      9 N           7.5136   41.1612   10.9169 N.am    1  UNL1       -0.2770
     10 H           7.9245   40.6408   10.1892 H       1  UNL1        0.1551
     11 C           9.8520   41.3041   11.8734 C.3     1  UNL1        0.4697
     12 F          10.5429   42.3505   11.2889 F       1  UNL1       -0.1620
     13 F          10.0441   40.1622   11.1170 F       1  UNL1       -0.1620
     14 F          10.3410   41.0923   13.1486 F       1  UNL1       -0.1620
     15 O           3.8255   43.9060    9.3850 O.3     1  UNL1       -0.4678
     16 C           3.3306   45.3336    7.5141 C.3     1  UNL1        0.0596
     17 C           4.1446   44.1588    8.0221 C.3     1  UNL1        0.2632
     18 C           5.6043   44.4330    7.8814 C.2     1  UNL1        0.3544
     19 O           6.2462   43.9914    6.8916 O.2     1  UNL1       -0.2463
     20 O           6.2573   45.1887    8.8453 O.3     1  UNL1       -0.4777
     21 H           5.7827   45.5187    9.5827 H       1  UNL1        0.2952
@<TRIPOS>BOND
     1    17    16    1
     2    17    18    1
     3    17    15    1
     4    18    20    1
     5     1    15    1
     6     2     3   ar
     7     4     5   ar
     8     5     9    1
     9     6     1   ar
    10    11     7    1
    11    11    12    1
    12    11    13    1
    13    11    14    1
    14     9     7   am
    15    18    19    2
    16     1     2   ar
    17     3     4   ar
    18     5     6   ar
    19     7     8    2
    20    20    21    1
    21     9    10    1
@<TRIPOS>MOLECULE
Molport-043-873-113 MCULE-7353733872 PubChem-123128074
 21 21 0 0 0
SMALL
GASTEIGER

@<TRIPOS>ATOM
      1 C          12.5814   39.9279    9.0142 C.ar    1  UNL1        0.1404
      2 C          11.5694   39.7498    8.0576 C.ar    1  UNL1        0.0370
      3 C          11.6243   40.4331    6.8407 C.ar    1  UNL1        0.0044
      4 C          12.6890   41.2972    6.5734 C.ar    1  UNL1        0.0149
      5 C          13.7058   41.4844    7.5216 C.ar    1  UNL1        0.0535
      6 C          13.6434   40.7951    8.7374 C.ar    1  UNL1        0.0516
      7 C          14.7825   43.6242    6.6029 C.2     1  UNL1        0.3215
      8 O          13.6953   44.1070    6.1858 O.2     1  UNL1       -0.2657
      9 N          14.8156   42.3608    7.2823 N.am    1  UNL1       -0.2770
     10 H          15.6918   42.0645    7.6194 H       1  UNL1        0.1551
     11 C          16.0463   44.4086    6.4485 C.3     1  UNL1        0.4697
     12 F          15.7644   45.6832    5.9904 F       1  UNL1       -0.1620
     13 F          16.8838   43.7821    5.5433 F       1  UNL1       -0.1620
     14 F          16.6830   44.4955    7.6720 F       1  UNL1       -0.1620
     15 O          12.5557   39.2593   10.2414 O.3     1  UNL1       -0.4678
     16 C          13.4388   37.3611    9.0582 C.3     1  UNL1        0.0596
     17 C          12.9035   37.8867   10.3765 C.3     1  UNL1        0.2632
     18 C          13.9181   37.7205   11.4575 C.2     1  UNL1        0.3544
     19 O          14.3956   38.7259   12.0474 O.2     1  UNL1       -0.2463
     20 O          14.3317   36.4465   11.8214 O.3     1  UNL1       -0.4777
     21 H          13.9784   35.6966   11.3846 H       1  UNL1        0.2952
@<TRIPOS>BOND
     1    17    16    1
     2    17    18    1
     3    17    15    1
     4    18    20    1
     5     1    15    1
     6     2     3   ar
     7     4     5   ar
     8     5     9    1
     9     6     1   ar
    10    11     7    1
    11    11    12    1
    12    11    13    1
    13    11    14    1
    14     9     7   am
    15    18    19    2
    16     1     2   ar
    17     3     4   ar
    18     5     6   ar
    19     7     8    2
    20    20    21    1
    21     9    10    1
@<TRIPOS>MOLECULE
Molport-043-873-113 MCULE-7353733872 PubChem-123128074
 21 21 0 0 0
SMALL
GASTEIGER

@<TRIPOS>ATOM
      1 C          12.0616   40.1759    7.5222 C.ar    1  UNL1        0.1404
      2 C          12.2051   39.5649    8.7780 C.ar    1  UNL1        0.0370
      3 C          13.3082   39.8610    9.5819 C.ar    1  UNL1        0.0044
      4 C          14.2728   40.7678    9.1359 C.ar    1  UNL1        0.0149
      5 C          14.1413   41.3842    7.8826 C.ar    1  UNL1        0.0535
      6 C          13.0326   41.0826    7.0844 C.ar    1  UNL1        0.0516
      7 C          14.8418   43.5624    6.7222 C.2     1  UNL1        0.3215
      8 O          13.6594   43.9647    6.5519 O.2     1  UNL1       -0.2657
      9 N          15.1092   42.3219    7.3919 N.am    1  UNL1       -0.2770
     10 H          16.0562   42.0903    7.5290 H       1  UNL1        0.1551
     11 C          15.9845   44.4203    6.2811 C.3     1  UNL1        0.4697
     12 F          16.6294   43.8398    5.2035 F       1  UNL1       -0.1620
     13 F          16.8892   44.5714    7.3164 F       1  UNL1       -0.1620
     14 F          15.5069   45.6628    5.9097 F       1  UNL1       -0.1620
     15 O          10.9698   39.9009    6.6939 O.3     1  UNL1       -0.4678
     16 C           9.4077   41.6799    7.1157 C.3     1  UNL1        0.0596
     17 C           9.6276   40.1797    7.0731 C.3     1  UNL1        0.2632
     18 C           8.6818   39.5385    6.1140 C.2     1  UNL1        0.3544
     19 O           8.1902   38.4052    6.3605 O.2     1  UNL1       -0.2463
     20 O           8.3345   40.2014    4.9450 O.3     1  UNL1       -0.4777
     21 H           8.6984   41.0446    4.7587 H       1  UNL1        0.2952
@<TRIPOS>BOND
     1    17    16    1
     2    17    18    1
     3    17    15    1
     4    18    20    1
     5     1    15    1
     6     2     3   ar
     7     4     5   ar
     8     5     9    1
     9     6     1   ar
    10    11     7    1
    11    11    12    1
    12    11    13    1
    13    11    14    1
    14     9     7   am
    15    18    19    2
    16     1     2   ar
    17     3     4   ar
    18     5     6   ar
    19     7     8    2
    20    20    21    1
    21     9    10    1
@<TRIPOS>MOLECULE
Molport-043-873-113 MCULE-7353733872 PubChem-123128074
 21 21 0 0 0
SMALL
GASTEIGER

@<TRIPOS>ATOM
      1 C          12.2660   40.5081    7.8193 C.ar    1  UNL1        0.1404
      2 C          11.6759   41.0887    6.6856 C.ar    1  UNL1        0.0370
      3 C          12.3794   42.0303    5.9312 C.ar    1  UNL1        0.0044
      4 C          13.6747   42.3965    6.3051 C.ar    1  UNL1        0.0149
      5 C          14.2751   41.8241    7.4364 C.ar    1  UNL1        0.0535
      6 C          13.5634   40.8810    8.1857 C.ar    1  UNL1        0.0516
      7 C          16.2853   43.4098    7.5982 C.2     1  UNL1        0.3215
      8 O          15.7081   44.3575    7.0001 O.2     1  UNL1       -0.2657
      9 N          15.6034   42.1727    7.8499 N.am    1  UNL1       -0.2770
     10 H          16.0992   41.4920    8.3598 H       1  UNL1        0.1551
     11 C          17.6766   43.5996    8.1126 C.3     1  UNL1        0.4697
     12 F          17.6456   44.1435    9.3844 F       1  UNL1       -0.1620
     13 F          18.3771   44.4515    7.2779 F       1  UNL1       -0.1620
     14 F          18.3188   42.3767    8.1567 F       1  UNL1       -0.1620
     15 O          11.5887   39.5634    8.5956 O.3     1  UNL1       -0.4678
     16 C          12.1701   40.0589   10.8758 C.3     1  UNL1        0.0596
     17 C          11.0465   39.8661    9.8753 C.3     1  UNL1        0.2632
     18 C          10.2004   41.0922    9.7949 C.2     1  UNL1        0.3544
     19 O           9.0680   41.0536    9.2445 O.2     1  UNL1       -0.2463
     20 O          10.6624   42.2824   10.3395 O.3     1  UNL1       -0.4777
     21 H          11.5043   42.3144   10.7496 H       1  UNL1        0.2952
@<TRIPOS>BOND
     1    17    16    1
     2    17    18    1
     3    17    15    1
     4    18    20    1
     5     1    15    1
     6     2     3   ar
     7     4     5   ar
     8     5     9    1
     9     6     1   ar
    10    11     7    1
    11    11    12    1
    12    11    13    1
    13    11    14    1
    14     9     7   am
    15    18    19    2
    16     1     2   ar
    17     3     4   ar
    18     5     6   ar
    19     7     8    2
    20    20    21    1
    21     9    10    1
@<TRIPOS>MOLECULE
Molport-043-873-113 MCULE-7353733872 PubChem-123128074
 21 21 0 0 0
SMALL
GASTEIGER

@<TRIPOS>ATOM
      1 C          13.7404   39.5336    9.5217 C.ar    1  UNL1        0.1404
      2 C          12.4229   39.9156    9.8199 C.ar    1  UNL1        0.0370
      3 C          11.8870   41.0814    9.2681 C.ar    1  UNL1        0.0044
      4 C          12.6637   41.8709    8.4166 C.ar    1  UNL1        0.0149
      5 C          13.9819   41.5004    8.1116 C.ar    1  UNL1        0.0535
      6 C          14.5103   40.3305    8.6680 C.ar    1  UNL1        0.0516
      7 C          14.3855   43.3601    6.3910 C.2     1  UNL1        0.3215
      8 O          13.1871   43.7511    6.3898 O.2     1  UNL1       -0.2657
      9 N          14.8088   42.2836    7.2399 N.am    1  UNL1       -0.2770
     10 H          15.7672   42.0590    7.2222 H       1  UNL1        0.1551
     11 C          15.3950   44.0708    5.5472 C.3     1  UNL1        0.4697
     12 F          15.3372   45.4335    5.7792 F       1  UNL1       -0.1620
     13 F          15.1431   43.8332    4.2081 F       1  UNL1       -0.1620
     14 F          16.6594   43.6093    5.8606 F       1  UNL1       -0.1620
     15 O          14.3062   38.3733   10.0577 O.3     1  UNL1       -0.4678
     16 C          16.4957   37.7300   10.8164 C.3     1  UNL1        0.0596
     17 C          15.5618   37.8610    9.6283 C.3     1  UNL1        0.2632
     18 C          15.3738   36.5398    8.9616 C.2     1  UNL1        0.3544
     19 O          16.1054   35.5600    9.2643 O.2     1  UNL1       -0.2463
     20 O          14.3781   36.3880    8.0064 O.3     1  UNL1       -0.4777
     21 H          13.8323   37.1148    7.7790 H       1  UNL1        0.2952
@<TRIPOS>BOND
     1    17    16    1
     2    17    18    1
     3    17    15    1
     4    18    20    1
     5     1    15    1
     6     2     3   ar
     7     4     5   ar
     8     5     9    1
     9     6     1   ar
    10    11     7    1
    11    11    12    1
    12    11    13    1
    13    11    14    1
    14     9     7   am
    15    18    19    2
    16     1     2   ar
    17     3     4   ar
    18     5     6   ar
    19     7     8    2
    20    20    21    1
    21     9    10    1
@<TRIPOS>MOLECULE
Molport-043-873-113 MCULE-7353733872 PubChem-123128074
 21 21 0 0 0
SMALL
GASTEIGER

@<TRIPOS>ATOM
      1 C          11.9854   40.5506    7.0515 C.ar    1  UNL1        0.1404
      2 C          12.3120   39.7520    8.1589 C.ar    1  UNL1        0.0370
      3 C          13.5025   39.9699    8.8560 C.ar    1  UNL1        0.0044
      4 C          14.3720   40.9855    8.4508 C.ar    1  UNL1        0.0149
      5 C          14.0573   41.7897    7.3453 C.ar    1  UNL1        0.0535
      6 C          12.8622   41.5651    6.6535 C.ar    1  UNL1        0.0516
      7 C          16.3252   42.9772    7.1760 C.2     1  UNL1        0.3215
      8 O          16.9447   42.0938    7.8276 O.2     1  UNL1       -0.2657
      9 N          14.9232   42.8432    6.9012 N.am    1  UNL1       -0.2770
     10 H          14.5127   43.5483    6.3502 H       1  UNL1        0.1551
     11 C          17.0735   44.1479    6.6230 C.3     1  UNL1        0.4697
     12 F          18.1055   44.5004    7.4743 F       1  UNL1       -0.1620
     13 F          16.2219   45.2283    6.4798 F       1  UNL1       -0.1620
     14 F          17.5965   43.8145    5.3880 F       1  UNL1       -0.1620
     15 O          10.8022   40.3579    6.3325 O.3     1  UNL1       -0.4678
     16 C           9.5643   38.6927    7.5483 C.3     1  UNL1        0.0596
     17 C           9.5548   40.0917    6.9620 C.3     1  UNL1        0.2632
     18 C           9.2930   41.1039    8.0262 C.2     1  UNL1        0.3544
     19 O           9.2119   42.3278    7.7396 O.2     1  UNL1       -0.2463
     20 O           9.1286   40.6911    9.3412 O.3     1  UNL1       -0.4777
     21 H           9.1883   39.7814    9.5577 H       1  UNL1        0.2952
@<TRIPOS>BOND
     1    17    16    1
     2    17    18    1
     3    17    15    1
     4    18    20    1
     5     1    15    1
     6     2     3   ar
     7     4     5   ar
     8     5     9    1
     9     6     1   ar
    10    11     7    1
    11    11    12    1
    12    11    13    1
    13    11    14    1
    14     9     7   am
    15    18    19    2
    16     1     2   ar
    17     3     4   ar
    18     5     6   ar
    19     7     8    2
    20    20    21    1
    21     9    10    1
@<TRIPOS>MOLECULE
Molport-043-873-113 MCULE-7353733872 PubChem-123128074
 21 21 0 0 0
SMALL
GASTEIGER

@<TRIPOS>ATOM
      1 C          14.1553   41.8487    7.7375 C.ar    1  UNL1        0.1404
      2 C          14.6736   40.9284    8.6623 C.ar    1  UNL1        0.0370
      3 C          13.8484   40.3815    9.6475 C.ar    1  UNL1        0.0044
      4 C          12.5027   40.7507    9.7141 C.ar    1  UNL1        0.0149
      5 C          11.9732   41.6701    8.7963 C.ar    1  UNL1        0.0535
      6 C          12.8067   42.2121    7.8121 C.ar    1  UNL1        0.0516
      7 C          10.0316   43.1378    9.6074 C.2     1  UNL1        0.3215
      8 O          10.7619   43.8770   10.3210 O.2     1  UNL1       -0.2657
      9 N          10.5967   42.0714    8.8314 N.am    1  UNL1       -0.2770
     10 H           9.9745   41.5618    8.2636 H       1  UNL1        0.1551
     11 C           8.5654   43.4169    9.5143 C.3     1  UNL1        0.4697
     12 F           8.3310   44.7770    9.6114 F       1  UNL1       -0.1620
     13 F           7.8957   42.7726   10.5387 F       1  UNL1       -0.1620
     14 F           8.0887   42.9588    8.3007 F       1  UNL1       -0.1620
     15 O          14.9546   42.4143    6.7399 O.3     1  UNL1       -0.4678
     16 C          17.0722   43.4983    7.0916 C.3     1  UNL1        0.0596
     17 C          15.5811   43.6831    6.8841 C.3     1  UNL1        0.2632
     18 C          15.3200   44.5220    5.6784 C.2     1  UNL1        0.3544
     19 O          14.7370   44.0349    4.6736 O.2     1  UNL1       -0.2463
     20 O          15.7152   45.8525    5.6686 O.3     1  UNL1       -0.4777
     21 H          16.1491   46.2179    6.4144 H       1  UNL1        0.2952
@<TRIPOS>BOND
     1    17    16    1
     2    17    18    1
     3    17    15    1
     4    18    20    1
     5     1    15    1
     6     2     3   ar
     7     4     5   ar
     8     5     9    1
     9     6     1   ar
    10    11     7    1
    11    11    12    1
    12    11    13    1
    13    11    14    1
    14     9     7   am
    15    18    19    2
    16     1     2   ar
    17     3     4   ar
    18     5     6   ar
    19     7     8    2
    20    20    21    1
    21     9    10    1
@<TRIPOS>MOLECULE
Molport-043-873-113 MCULE-7353733872 PubChem-123128074
 21 21 0 0 0
SMALL
GASTEIGER

@<TRIPOS>ATOM
      1 C          11.2676   40.7711    6.4415 C.ar    1  UNL1        0.1404
      2 C          11.3724   40.0884    7.6637 C.ar    1  UNL1        0.0370
      3 C          12.4232   40.3713    8.5391 C.ar    1  UNL1        0.0044
      4 C          13.3740   41.3366    8.1985 C.ar    1  UNL1        0.0149
      5 C          13.2808   42.0250    6.9798 C.ar    1  UNL1        0.0535
      6 C          12.2244   41.7359    6.1094 C.ar    1  UNL1        0.0516
      7 C          15.6082   43.1040    7.0080 C.2     1  UNL1        0.3215
      8 O          16.1169   42.2153    7.7431 O.2     1  UNL1       -0.2657
      9 N          14.2359   43.0240    6.5967 N.am    1  UNL1       -0.2770
     10 H          13.9164   43.7285    5.9877 H       1  UNL1        0.1551
     11 C          16.4629   44.2218    6.5015 C.3     1  UNL1        0.4697
     12 F          15.6813   45.3243    6.2053 F       1  UNL1       -0.1620
     13 F          17.1302   43.8251    5.3568 F       1  UNL1       -0.1620
     14 F          17.3867   44.5662    7.4699 F       1  UNL1       -0.1620
     15 O          10.2285   40.5111    5.5435 O.3     1  UNL1       -0.4678
     16 C           8.1052   39.4851    6.0150 C.3     1  UNL1        0.0596
     17 C           9.5237   39.2758    5.5201 C.3     1  UNL1        0.2632
     18 C           9.5188   38.7163    4.1371 C.2     1  UNL1        0.3544
     19 O           9.2342   39.4474    3.1517 O.2     1  UNL1       -0.2463
     20 O           9.8397   37.3810    3.9352 O.3     1  UNL1       -0.4777
     21 H          10.0519   36.8345    4.6662 H       1  UNL1        0.2952
@<TRIPOS>BOND
     1    17    16    1
     2    17    18    1
     3    17    15    1
     4    18    20    1
     5     1    15    1
     6     2     3   ar
     7     4     5   ar
     8     5     9    1
     9     6     1   ar
    10    11     7    1
    11    11    12    1
    12    11    13    1
    13    11    14    1
    14     9     7   am
    15    18    19    2
    16     1     2   ar
    17     3     4   ar
    18     5     6   ar
    19     7     8    2
    20    20    21    1
    21     9    10    1
@<TRIPOS>MOLECULE
Molport-043-873-113 MCULE-7353733872 PubChem-123128074
 21 21 0 0 0
SMALL
GASTEIGER

@<TRIPOS>ATOM
      1 C          12.5369   40.6976    8.8767 C.ar    1  UNL1        0.1404
      2 C          13.0679   39.6689    9.6707 C.ar    1  UNL1        0.0370
      3 C          14.4507   39.5337    9.8136 C.ar    1  UNL1        0.0044
      4 C          15.3093   40.4244    9.1646 C.ar    1  UNL1        0.0149
      5 C          14.7909   41.4559    8.3676 C.ar    1  UNL1        0.0535
      6 C          13.4046   41.5845    8.2309 C.ar    1  UNL1        0.0516
      7 C          15.2239   43.4839    6.8571 C.2     1  UNL1        0.3215
      8 O          14.0015   43.7464    6.6965 O.2     1  UNL1       -0.2657
      9 N          15.6402   42.3907    7.6881 N.am    1  UNL1       -0.2770
     10 H          16.6103   42.2698    7.8040 H       1  UNL1        0.1551
     11 C          16.2570   44.3637    6.2286 C.3     1  UNL1        0.4697
     12 F          16.7188   43.7949    5.0550 F       1  UNL1       -0.1620
     13 F          17.3226   44.5338    7.0937 F       1  UNL1       -0.1620
     14 F          15.6985   45.5962    5.9475 F       1  UNL1       -0.1620
     15 O          11.1582   40.8597    8.7130 O.3     1  UNL1       -0.4678
     16 C           9.1950   41.9875    7.9023 C.3     1  UNL1        0.0596
     17 C          10.5449   42.1360    8.5782 C.3     1  UNL1        0.2632
     18 C          10.3925   42.7739    9.9181 C.2     1  UNL1        0.3544
     19 O          10.8355   43.9341   10.1288 O.2     1  UNL1       -0.2463
     20 O           9.7491   42.0857   10.9374 O.3     1  UNL1       -0.4777
     21 H           9.4184   41.2225   10.7838 H       1  UNL1        0.2952
@<TRIPOS>BOND
     1    17    16    1
     2    17    18    1
     3    17    15    1
     4    18    20    1
     5     1    15    1
     6     2     3   ar
     7     4     5   ar
     8     5     9    1
     9     6     1   ar
    10    11     7    1
    11    11    12    1
    12    11    13    1
    13    11    14    1
    14     9     7   am
    15    18    19    2
    16     1     2   ar
    17     3     4   ar
    18     5     6   ar
    19     7     8    2
    20    20    21    1
    21     9    10    1
@<TRIPOS>MOLECULE
Molport-043-873-113 MCULE-7353733872 PubChem-123128074
 21 21 0 0 0
SMALL
GASTEIGER

@<TRIPOS>ATOM
      1 C          11.8962   40.9674    8.3832 C.ar    1  UNL1        0.1404
      2 C          11.2967   41.3523    7.1736 C.ar    1  UNL1        0.0370
      3 C          12.0594   41.9584    6.1727 C.ar    1  UNL1        0.0044
      4 C          13.4233   42.1831    6.3749 C.ar    1  UNL1        0.0149
      5 C          14.0338   41.8039    7.5797 C.ar    1  UNL1        0.0535
      6 C          13.2625   41.1965    8.5763 C.ar    1  UNL1        0.0516
      7 C          16.1859   43.1994    7.5256 C.2     1  UNL1        0.3215
      8 O          15.6255   44.2210    7.0447 O.2     1  UNL1       -0.2657
      9 N          15.4313   42.0157    7.8227 N.am    1  UNL1       -0.2770
     10 H          15.9244   41.2710    8.2368 H       1  UNL1        0.1551
     11 C          17.6440   43.2429    7.8546 C.3     1  UNL1        0.4697
     12 F          18.2348   42.0251    7.5683 F       1  UNL1       -0.1620
     13 F          17.8172   43.5198    9.1987 F       1  UNL1       -0.1620
     14 F          18.2529   44.2312    7.1047 F       1  UNL1       -0.1620
     15 O          11.1609   40.3591    9.4046 O.3     1  UNL1       -0.4678
     16 C          10.3027   38.4068    8.2933 C.3     1  UNL1        0.0596
     17 C          11.0203   38.9480    9.5151 C.3     1  UNL1        0.2632
     18 C          12.3613   38.3106    9.6602 C.2     1  UNL1        0.3544
     19 O          12.9884   38.3797   10.7505 O.2     1  UNL1       -0.2463
     20 O          12.9173   37.6284    8.5868 O.3     1  UNL1       -0.4777
     21 H          12.4534   37.5752    7.7745 H       1  UNL1        0.2952
@<TRIPOS>BOND
     1    17    16    1
     2    17    18    1
     3    17    15    1
     4    18    20    1
     5     1    15    1
     6     2     3   ar
     7     4     5   ar
     8     5     9    1
     9     6     1   ar
    10    11     7    1
    11    11    12    1
    12    11    13    1
    13    11    14    1
    14     9     7   am
    15    18    19    2
    16     1     2   ar
    17     3     4   ar
    18     5     6   ar
    19     7     8    2
    20    20    21    1
    21     9    10    1
