@<TRIPOS>MOLECULE
MolPort-004-978-380 CSSS00159439457 MCULE-6028275498 PubChem-45159086
 31 33 0 0 0
SMALL
GASTEIGER

@<TRIPOS>ATOM
      1 C          13.6158   42.4180    6.6581 C.ar    1  UNL1        0.1514
      2 C          14.6516   42.1018    7.5418 C.ar    1  UNL1        0.0757
      3 C          14.1423   41.1552    8.4137 C.ar    1  UNL1        0.0505
      4 C          14.6653   40.5423    9.5479 C.ar    1  UNL1        0.0202
      5 C          13.8329   39.6462   10.2488 C.ar    1  UNL1        0.0642
      6 C          12.5138   39.4240    9.7965 C.ar    1  UNL1        0.1147
      7 C          12.8543   40.9184    8.0179 C.ar    1  UNL1        0.1453
      8 N          12.0370   40.0682    8.6899 N.ar    1  UNL1       -0.2254
      9 N          12.5181   41.6692    6.9527 N.ar    1  UNL1       -0.3040
     10 C          17.1079   42.2290    8.2205 C.2     1  UNL1        0.2266
     11 C          18.2738   43.1242    8.4355 C.3     1  UNL1        0.0949
     12 O          17.1920   41.0150    8.5428 O.2     1  UNL1       -0.2748
     13 N          15.9320   42.7465    7.5919 N.am    1  UNL1       -0.2825
     14 H          16.0083   43.6248    7.1539 H       1  UNL1        0.1549
     15 C          13.6962   43.4151    5.5685 C.2     1  UNL1        0.3587
     16 O          13.6159   43.0476    4.3646 O.2     1  UNL1       -0.2432
     17 C          15.1196   45.4184    5.7240 C.3     1  UNL1        0.2560
     18 O          13.8680   44.7661    5.8762 O.3     1  UNL1       -0.4403
     19 N          14.2967   38.9633   11.4149 N.pl3   1  UNL1       -0.3314
     20 H          14.1515   39.3807   12.2947 H       1  UNL1        0.1469
     21 C          14.9763   37.6737   11.3570 C.3     1  UNL1        0.0869
     22 C          16.4693   37.8427   11.0944 C.3     1  UNL1        0.0180
     23 C          16.8914   39.2183   11.5651 C.3     1  UNL1        0.0017
     24 C          16.7660   37.7233    9.6109 C.3     1  UNL1        0.0017
     25 C          17.2658   36.8008   11.8581 C.3     1  UNL1        0.0017
     26 C          11.2027   41.7198    6.3234 C.3     1  UNL1        0.1371
     27 C          10.8181   40.3511    5.7835 C.3     1  UNL1        0.1378
     28 C          11.0740   40.3008    4.2968 C.3     1  UNL1        0.0341
     29 C           9.9020   39.5398    3.7552 C.3     1  UNL1        0.0346
     30 C           9.0701   39.2317    4.9779 C.3     1  UNL1        0.1422
     31 O           9.4555   40.1025    6.0068 O.3     1  UNL1       -0.3543
@<TRIPOS>BOND
     1    17    18    1
     2    15    18    1
     3    15     1    1
     4     2    13    1
     5     2     3   ar
     6    11    10    1
     7     4     5   ar
     8     5    19    1
     9    21    19    1
    10    21    22    1
    11    22    23    1
    12    22    24    1
    13    22    25    1
    14     6     8   ar
    15     7     9   ar
    16     7     3   ar
    17    26     9    1
    18    27    26    1
    19    27    28    1
    20    27    31    1
    21    28    29    1
    22    29    30    1
    23    30    31    1
    24    13    10   am
    25     9     1   ar
    26    15    16    2
    27     1     2   ar
    28    10    12    2
    29     3     4   ar
    30     5     6   ar
    31     7     8   ar
    32    13    14    1
    33    19    20    1
@<TRIPOS>MOLECULE
MolPort-004-978-380 CSSS00159439457 MCULE-6028275498 PubChem-45159086
 31 33 0 0 0
SMALL
GASTEIGER

@<TRIPOS>ATOM
      1 C           6.4025   41.5613    9.1614 C.ar    1  UNL1        0.1514
      2 C           5.7695   42.5740    8.4350 C.ar    1  UNL1        0.0757
      3 C           6.6809   42.9965    7.4830 C.ar    1  UNL1        0.0505
      4 C           6.6560   44.0260    6.5476 C.ar    1  UNL1        0.0202
      5 C           7.8063   44.2170    5.7555 C.ar    1  UNL1        0.0642
      6 C           8.9313   43.3866    5.9518 C.ar    1  UNL1        0.1147
      7 C           7.7975   42.2229    7.6467 C.ar    1  UNL1        0.1453
      8 N           8.9168   42.4033    6.9004 N.ar    1  UNL1       -0.2254
      9 N           7.6468   41.3436    8.6544 N.ar    1  UNL1       -0.3040
     10 C           3.9422   44.3358    8.1763 C.2     1  UNL1        0.2266
     11 C           2.7253   44.9356    8.7816 C.3     1  UNL1        0.0949
     12 O           4.4477   44.8633    7.1511 O.2     1  UNL1       -0.2748
     13 N           4.4817   43.1325    8.7300 N.am    1  UNL1       -0.2825
     14 H           3.9179   42.6432    9.3718 H       1  UNL1        0.1549
     15 C           5.8138   40.8357   10.3080 C.2     1  UNL1        0.3587
     16 O           6.5208   40.5603   11.3155 O.2     1  UNL1       -0.2432
     17 C           3.4902   41.0630   11.0909 C.3     1  UNL1        0.2560
     18 O           4.4725   40.4498   10.2697 O.3     1  UNL1       -0.4403
     19 N           7.8584   45.2418    4.7614 N.pl3   1  UNL1       -0.3314
     20 H           7.7816   46.1806    5.0477 H       1  UNL1        0.1469
     21 C           8.0206   44.9558    3.3400 C.3     1  UNL1        0.0869
     22 C           8.3772   46.2148    2.5563 C.3     1  UNL1        0.0180
     23 C           9.1030   47.1707    3.4789 C.3     1  UNL1        0.0017
     24 C           7.1220   46.8945    2.0404 C.3     1  UNL1        0.0017
     25 C           9.2882   45.8765    1.3906 C.3     1  UNL1        0.0017
     26 C           8.6662   40.4221    9.1446 C.3     1  UNL1        0.1371
     27 C           9.7953   41.1869    9.8180 C.3     1  UNL1        0.1378
     28 C          10.2105   40.4723   11.0811 C.3     1  UNL1        0.0341
     29 C          10.4574   41.5817   12.0579 C.3     1  UNL1        0.0346
     30 C          10.1491   42.8349   11.2727 C.3     1  UNL1        0.1422
     31 O           9.3739   42.4807   10.1596 O.3     1  UNL1       -0.3543
@<TRIPOS>BOND
     1    17    18    1
     2    15    18    1
     3    15     1    1
     4     2    13    1
     5     2     3   ar
     6    11    10    1
     7     4     5   ar
     8     5    19    1
     9    21    19    1
    10    21    22    1
    11    22    23    1
    12    22    24    1
    13    22    25    1
    14     6     8   ar
    15     7     9   ar
    16     7     3   ar
    17    26     9    1
    18    27    26    1
    19    27    28    1
    20    27    31    1
    21    28    29    1
    22    29    30    1
    23    30    31    1
    24    13    10   am
    25     9     1   ar
    26    15    16    2
    27     1     2   ar
    28    10    12    2
    29     3     4   ar
    30     5     6   ar
    31     7     8   ar
    32    13    14    1
    33    19    20    1
@<TRIPOS>MOLECULE
MolPort-004-978-380 CSSS00159439457 MCULE-6028275498 PubChem-45159086
 31 33 0 0 0
SMALL
GASTEIGER

@<TRIPOS>ATOM
      1 C           9.4230   39.6670    6.9420 C.ar    1  UNL1        0.1514
      2 C          10.5532   39.6934    6.1199 C.ar    1  UNL1        0.0757
      3 C          11.3475   40.7269    6.5853 C.ar    1  UNL1        0.0505
      4 C          12.5331   41.2860    6.1193 C.ar    1  UNL1        0.0202
      5 C          13.0526   42.3935    6.8197 C.ar    1  UNL1        0.0642
      6 C          12.3520   42.9015    7.9355 C.ar    1  UNL1        0.1147
      7 C          10.6965   41.2589    7.6646 C.ar    1  UNL1        0.1453
      8 N          11.1777   42.3327    8.3411 N.ar    1  UNL1       -0.2254
      9 N           9.5316   40.6272    7.9005 N.ar    1  UNL1       -0.3040
     10 C           9.9471   38.8976    3.7727 C.2     1  UNL1        0.2266
     11 C          10.1065   37.8151    2.7677 C.3     1  UNL1        0.0949
     12 O           9.1445   39.8402    3.5449 O.2     1  UNL1       -0.2748
     13 N          10.7553   38.8846    4.9527 N.am    1  UNL1       -0.2825
     14 H          11.5196   38.2642    4.9648 H       1  UNL1        0.1549
     15 C           8.2802   38.7395    6.7947 C.2     1  UNL1        0.3587
     16 O           8.3072   37.6063    7.3478 O.2     1  UNL1       -0.2432
     17 C           6.2745   40.1304    6.4689 C.3     1  UNL1        0.2560
     18 O           7.1721   39.1197    6.0351 O.3     1  UNL1       -0.4403
     19 N          14.2728   43.0179    6.4166 N.pl3   1  UNL1       -0.3314
     20 H          14.2404   43.7056    5.7128 H       1  UNL1        0.1469
     21 C          15.5647   42.6796    7.0039 C.3     1  UNL1        0.0869
     22 C          16.5600   43.8261    6.8574 C.3     1  UNL1        0.0180
     23 C          17.1447   44.1372    8.2186 C.3     1  UNL1        0.0017
     24 C          15.8669   45.0688    6.3294 C.3     1  UNL1        0.0017
     25 C          17.6881   43.4358    5.9202 C.3     1  UNL1        0.0017
     26 C           8.5568   40.9860    8.9250 C.3     1  UNL1        0.1371
     27 C           8.1183   42.4328    8.7589 C.3     1  UNL1        0.1378
     28 C           6.7880   42.6422    9.4406 C.3     1  UNL1        0.0341
     29 C           6.0408   43.5419    8.5035 C.3     1  UNL1        0.0346
     30 C           7.0038   43.7588    7.3600 C.3     1  UNL1        0.1422
     31 O           7.9733   42.7468    7.3993 O.3     1  UNL1       -0.3543
@<TRIPOS>BOND
     1    17    18    1
     2    15    18    1
     3    15     1    1
     4     2    13    1
     5     2     3   ar
     6    11    10    1
     7     4     5   ar
     8     5    19    1
     9    21    19    1
    10    21    22    1
    11    22    23    1
    12    22    24    1
    13    22    25    1
    14     6     8   ar
    15     7     9   ar
    16     7     3   ar
    17    26     9    1
    18    27    26    1
    19    27    28    1
    20    27    31    1
    21    28    29    1
    22    29    30    1
    23    30    31    1
    24    13    10   am
    25     9     1   ar
    26    15    16    2
    27     1     2   ar
    28    10    12    2
    29     3     4   ar
    30     5     6   ar
    31     7     8   ar
    32    13    14    1
    33    19    20    1
@<TRIPOS>MOLECULE
MolPort-004-978-380 CSSS00159439457 MCULE-6028275498 PubChem-45159086
 31 33 0 0 0
SMALL
GASTEIGER

@<TRIPOS>ATOM
      1 C          15.5285   33.5923    3.9148 C.ar    1  UNL1        0.1514
      2 C          15.6216   34.9300    4.3093 C.ar    1  UNL1        0.0757
      3 C          14.3505   35.4622    4.1792 C.ar    1  UNL1        0.0505
      4 C          13.8497   36.7512    4.3315 C.ar    1  UNL1        0.0202
      5 C          12.4823   36.9572    4.0579 C.ar    1  UNL1        0.0642
      6 C          11.6887   35.8726    3.6246 C.ar    1  UNL1        0.1147
      7 C          13.5471   34.4429    3.7463 C.ar    1  UNL1        0.1453
      8 N          12.2320   34.6289    3.4667 N.ar    1  UNL1       -0.2254
      9 N          14.2405   33.3006    3.5855 N.ar    1  UNL1       -0.3040
     10 C          17.5965   35.4364    5.8433 C.2     1  UNL1        0.2266
     11 C          18.6649   36.4115    6.1822 C.3     1  UNL1        0.0949
     12 O          17.4159   34.4342    6.5833 O.2     1  UNL1       -0.2748
     13 N          16.8339   35.6182    4.6471 N.am    1  UNL1       -0.2825
     14 H          17.1717   36.2753    3.9964 H       1  UNL1        0.1549
     15 C          16.6562   32.6366    3.8604 C.2     1  UNL1        0.3587
     16 O          16.7669   31.7352    4.7357 O.2     1  UNL1       -0.2432
     17 C          17.4045   33.5770    1.7111 C.3     1  UNL1        0.2560
     18 O          17.6033   32.7389    2.8397 O.3     1  UNL1       -0.4403
     19 N          11.8847   38.2468    4.2035 N.pl3   1  UNL1       -0.3314
     20 H          12.4661   39.0410    4.1822 H       1  UNL1        0.1469
     21 C          10.4492   38.4364    4.3822 C.3     1  UNL1        0.0869
     22 C          10.1547   39.5944    5.3303 C.3     1  UNL1        0.0180
     23 C           8.6543   39.7265    5.4825 C.3     1  UNL1        0.0017
     24 C          10.7037   40.8938    4.7705 C.3     1  UNL1        0.0017
     25 C          10.7618   39.3322    6.6963 C.3     1  UNL1        0.0017
     26 C          13.7098   32.0442    3.0674 C.3     1  UNL1        0.1371
     27 C          12.9669   31.2898    4.1592 C.3     1  UNL1        0.1378
     28 C          11.5089   31.6802    4.1449 C.3     1  UNL1        0.0341
     29 C          11.1463   31.7715    5.5961 C.3     1  UNL1        0.0346
     30 C          12.4322   31.4382    6.3155 C.3     1  UNL1        0.1422
     31 O          13.4973   31.6052    5.4191 O.3     1  UNL1       -0.3543
@<TRIPOS>BOND
     1    17    18    1
     2    15    18    1
     3    15     1    1
     4     2    13    1
     5     2     3   ar
     6    11    10    1
     7     4     5   ar
     8     5    19    1
     9    21    19    1
    10    21    22    1
    11    22    23    1
    12    22    24    1
    13    22    25    1
    14     6     8   ar
    15     7     9   ar
    16     7     3   ar
    17    26     9    1
    18    27    26    1
    19    27    28    1
    20    27    31    1
    21    28    29    1
    22    29    30    1
    23    30    31    1
    24    13    10   am
    25     9     1   ar
    26    15    16    2
    27     1     2   ar
    28    10    12    2
    29     3     4   ar
    30     5     6   ar
    31     7     8   ar
    32    13    14    1
    33    19    20    1
@<TRIPOS>MOLECULE
MolPort-004-978-380 CSSS00159439457 MCULE-6028275498 PubChem-45159086
 31 33 0 0 0
SMALL
GASTEIGER

@<TRIPOS>ATOM
      1 C           5.8069   41.9678    9.9136 C.ar    1  UNL1        0.1514
      2 C           6.0045   42.3782    8.5921 C.ar    1  UNL1        0.0757
      3 C           7.2951   42.0053    8.2589 C.ar    1  UNL1        0.0505
      4 C           8.0766   42.2258    7.1292 C.ar    1  UNL1        0.0202
      5 C           9.4012   41.7439    7.1470 C.ar    1  UNL1        0.0642
      6 C           9.8866   41.0868    8.2987 C.ar    1  UNL1        0.1147
      7 C           7.8105   41.3730    9.3572 C.ar    1  UNL1        0.1453
      8 N           9.0877   40.9150    9.3938 N.ar    1  UNL1       -0.2254
      9 N           6.9228   41.3349   10.3681 N.ar    1  UNL1       -0.3040
     10 C           4.9217   44.5695    7.8601 C.2     1  UNL1        0.2266
     11 C           3.7428   45.1942    7.2066 C.3     1  UNL1        0.0949
     12 O           5.7916   45.3029    8.3987 O.2     1  UNL1       -0.2748
     13 N           5.0812   43.1491    7.8105 N.am    1  UNL1       -0.2825
     14 H           4.5051   42.6556    7.1830 H       1  UNL1        0.1549
     15 C           4.5747   42.1877   10.7018 C.2     1  UNL1        0.3587
     16 O           4.6209   42.1978   11.9622 O.2     1  UNL1       -0.2432
     17 C           2.6352   41.2984    9.4725 C.3     1  UNL1        0.2560
     18 O           3.3568   42.3781   10.0461 O.3     1  UNL1       -0.4403
     19 N          10.2661   41.9152    6.0228 N.pl3   1  UNL1       -0.3314
     20 H          10.9796   42.5914    6.0756 H       1  UNL1        0.1469
     21 C          10.1366   41.1302    4.7999 C.3     1  UNL1        0.0869
     22 C          10.5493   39.6790    5.0239 C.3     1  UNL1        0.0180
     23 C          11.7111   39.6498    5.9940 C.3     1  UNL1        0.0017
     24 C          10.9891   39.0427    3.7180 C.3     1  UNL1        0.0017
     25 C           9.4003   38.8836    5.6157 C.3     1  UNL1        0.0017
     26 C           7.1704   40.8021   11.7036 C.3     1  UNL1        0.1371
     27 C           8.2965   41.5672   12.3814 C.3     1  UNL1        0.1378
     28 C           9.6267   41.0873   11.8534 C.3     1  UNL1        0.0341
     29 C          10.5046   41.0525   13.0675 C.3     1  UNL1        0.0346
     30 C           9.5968   41.5030   14.1877 C.3     1  UNL1        0.1422
     31 O           8.2675   41.3539   13.7677 O.3     1  UNL1       -0.3543
@<TRIPOS>BOND
     1    17    18    1
     2    15    18    1
     3    15     1    1
     4     2    13    1
     5     2     3   ar
     6    11    10    1
     7     4     5   ar
     8     5    19    1
     9    21    19    1
    10    21    22    1
    11    22    23    1
    12    22    24    1
    13    22    25    1
    14     6     8   ar
    15     7     9   ar
    16     7     3   ar
    17    26     9    1
    18    27    26    1
    19    27    28    1
    20    27    31    1
    21    28    29    1
    22    29    30    1
    23    30    31    1
    24    13    10   am
    25     9     1   ar
    26    15    16    2
    27     1     2   ar
    28    10    12    2
    29     3     4   ar
    30     5     6   ar
    31     7     8   ar
    32    13    14    1
    33    19    20    1
@<TRIPOS>MOLECULE
MolPort-004-978-380 CSSS00159439457 MCULE-6028275498 PubChem-45159086
 31 33 0 0 0
SMALL
GASTEIGER

@<TRIPOS>ATOM
      1 C          13.0121   42.5804    6.4552 C.ar    1  UNL1        0.1514
      2 C          13.4487   42.4698    7.7784 C.ar    1  UNL1        0.0757
      3 C          12.4829   41.7365    8.4456 C.ar    1  UNL1        0.0505
      4 C          12.3213   41.3898    9.7833 C.ar    1  UNL1        0.0202
      5 C          11.1633   40.6672   10.1355 C.ar    1  UNL1        0.0642
      6 C          10.2142   40.3466    9.1404 C.ar    1  UNL1        0.1147
      7 C          11.5317   41.4142    7.5165 C.ar    1  UNL1        0.1453
      8 N          10.4057   40.7301    7.8430 N.ar    1  UNL1       -0.2254
      9 N          11.8366   41.9113    6.3035 N.ar    1  UNL1       -0.3040
     10 C          15.9616   42.6988    8.1562 C.2     1  UNL1        0.2266
     11 C          17.0221   43.2899    9.0124 C.3     1  UNL1        0.0949
     12 O          16.2798   41.8842    7.2507 O.2     1  UNL1       -0.2748
     13 N          14.6043   43.1138    8.3326 N.am    1  UNL1       -0.2825
     14 H          14.4492   43.9141    8.8846 H       1  UNL1        0.1549
     15 C          13.7166   43.3137    5.3810 C.2     1  UNL1        0.3587
     16 O          14.1717   42.6929    4.3818 O.2     1  UNL1       -0.2432
     17 C          15.1519   45.2861    5.7175 C.3     1  UNL1        0.2560
     18 O          13.8826   44.6965    5.4790 O.3     1  UNL1       -0.4403
     19 N          10.9275   40.2591   11.4843 N.pl3   1  UNL1       -0.3314
     20 H          10.9260   39.2968   11.6923 H       1  UNL1        0.1469
     21 C          10.6887   41.2081   12.5663 C.3     1  UNL1        0.0869
     22 C           9.1982   41.3668   12.8485 C.3     1  UNL1        0.0180
     23 C           8.7299   42.6791   12.2567 C.3     1  UNL1        0.0017
     24 C           8.9384   41.3864   14.3437 C.3     1  UNL1        0.0017
     25 C           8.4119   40.2364   12.2103 C.3     1  UNL1        0.0017
     26 C          11.0056   41.8180    5.1079 C.3     1  UNL1        0.1371
     27 C          10.4367   40.4149    4.9634 C.3     1  UNL1        0.1378
     28 C          10.9491   39.7874    3.6899 C.3     1  UNL1        0.0341
     29 C           9.7610   39.0528    3.1469 C.3     1  UNL1        0.0346
     30 C           8.6676   39.3347    4.1505 C.3     1  UNL1        0.1422
     31 O           9.0358   40.4591    4.9026 O.3     1  UNL1       -0.3543
@<TRIPOS>BOND
     1    17    18    1
     2    15    18    1
     3    15     1    1
     4     2    13    1
     5     2     3   ar
     6    11    10    1
     7     4     5   ar
     8     5    19    1
     9    21    19    1
    10    21    22    1
    11    22    23    1
    12    22    24    1
    13    22    25    1
    14     6     8   ar
    15     7     9   ar
    16     7     3   ar
    17    26     9    1
    18    27    26    1
    19    27    28    1
    20    27    31    1
    21    28    29    1
    22    29    30    1
    23    30    31    1
    24    13    10   am
    25     9     1   ar
    26    15    16    2
    27     1     2   ar
    28    10    12    2
    29     3     4   ar
    30     5     6   ar
    31     7     8   ar
    32    13    14    1
    33    19    20    1
@<TRIPOS>MOLECULE
MolPort-004-978-380 CSSS00159439457 MCULE-6028275498 PubChem-45159086
 31 33 0 0 0
SMALL
GASTEIGER

@<TRIPOS>ATOM
      1 C          11.6605   40.1333    8.5594 C.ar    1  UNL1        0.1514
      2 C          12.8783   40.6858    8.9660 C.ar    1  UNL1        0.0757
      3 C          13.2393   41.5934    7.9854 C.ar    1  UNL1        0.0505
      4 C          14.3785   42.3685    7.7936 C.ar    1  UNL1        0.0202
      5 C          14.4424   43.1588    6.6281 C.ar    1  UNL1        0.0642
      6 C          13.3775   43.1188    5.7017 C.ar    1  UNL1        0.1147
      7 C          12.2359   41.5772    7.0555 C.ar    1  UNL1        0.1453
      8 N          12.2892   42.3228    5.9225 N.ar    1  UNL1       -0.2254
      9 N          11.2675   40.7035    7.3877 N.ar    1  UNL1       -0.3040
     10 C          14.6851   39.2966   10.1131 C.2     1  UNL1        0.2266
     11 C          15.1890   38.7735   11.4091 C.3     1  UNL1        0.0949
     12 O          15.2220   38.9142    9.0406 O.2     1  UNL1       -0.2748
     13 N          13.6413   40.2744   10.1088 N.am    1  UNL1       -0.2825
     14 H          13.4271   40.7042   10.9683 H       1  UNL1        0.1549
     15 C          10.9108   39.0868    9.2879 C.2     1  UNL1        0.3587
     16 O          10.7128   37.9607    8.7553 O.2     1  UNL1       -0.2432
     17 C          10.1424   40.6721   11.0084 C.3     1  UNL1        0.2560
     18 O          10.4164   39.3510   10.5667 O.3     1  UNL1       -0.4403
     19 N          15.5699   43.9949    6.3619 N.pl3   1  UNL1       -0.3314
     20 H          15.7043   44.3274    5.4450 H       1  UNL1        0.1469
     21 C          16.5306   44.3769    7.3913 C.3     1  UNL1        0.0869
     22 C          17.8485   43.6266    7.2284 C.3     1  UNL1        0.0180
     23 C          18.0931   43.3914    5.7531 C.3     1  UNL1        0.0017
     24 C          17.7872   42.2833    7.9321 C.3     1  UNL1        0.0017
     25 C          18.9988   44.4425    7.7890 C.3     1  UNL1        0.0017
     26 C          10.0928   40.3830    6.5839 C.3     1  UNL1        0.1371
     27 C          10.4489   39.3799    5.4976 C.3     1  UNL1        0.1378
     28 C          10.5236   40.0812    4.1630 C.3     1  UNL1        0.0341
     29 C           9.8947   39.1102    3.2103 C.3     1  UNL1        0.0346
     30 C           9.5025   37.9425    4.0848 C.3     1  UNL1        0.1422
     31 O           9.4700   38.3782    5.4170 O.3     1  UNL1       -0.3543
@<TRIPOS>BOND
     1    17    18    1
     2    15    18    1
     3    15     1    1
     4     2    13    1
     5     2     3   ar
     6    11    10    1
     7     4     5   ar
     8     5    19    1
     9    21    19    1
    10    21    22    1
    11    22    23    1
    12    22    24    1
    13    22    25    1
    14     6     8   ar
    15     7     9   ar
    16     7     3   ar
    17    26     9    1
    18    27    26    1
    19    27    28    1
    20    27    31    1
    21    28    29    1
    22    29    30    1
    23    30    31    1
    24    13    10   am
    25     9     1   ar
    26    15    16    2
    27     1     2   ar
    28    10    12    2
    29     3     4   ar
    30     5     6   ar
    31     7     8   ar
    32    13    14    1
    33    19    20    1
@<TRIPOS>MOLECULE
MolPort-004-978-380 CSSS00159439457 MCULE-6028275498 PubChem-45159086
 31 33 0 0 0
SMALL
GASTEIGER

@<TRIPOS>ATOM
      1 C          10.7684   41.3315   10.8718 C.ar    1  UNL1        0.1514
      2 C          10.6320   42.3171    9.8900 C.ar    1  UNL1        0.0757
      3 C          11.7277   42.1867    9.0545 C.ar    1  UNL1        0.0505
      4 C          12.1806   42.9348    7.9725 C.ar    1  UNL1        0.0202
      5 C          13.3950   42.5456    7.3718 C.ar    1  UNL1        0.0642
      6 C          14.1077   41.4444    7.8945 C.ar    1  UNL1        0.1147
      7 C          12.4567   41.1333    9.5346 C.ar    1  UNL1        0.1453
      8 N          13.6339   40.7549    8.9748 N.ar    1  UNL1       -0.2254
      9 N          11.8895   40.5981   10.6316 N.ar    1  UNL1       -0.3040
     10 C           8.5200   43.3940    8.9466 C.2     1  UNL1        0.2266
     11 C           7.7181   44.6412    8.8545 C.3     1  UNL1        0.0949
     12 O           8.1872   42.3922    8.2608 O.2     1  UNL1       -0.2748
     13 N           9.6182   43.3314    9.8608 N.am    1  UNL1       -0.2825
     14 H           9.6843   44.0496   10.5308 H       1  UNL1        0.1549
     15 C           9.8390   41.1166   12.0023 C.2     1  UNL1        0.3587
     16 O          10.2532   41.2059   13.1903 O.2     1  UNL1       -0.2432
     17 C           7.4516   41.7185   12.0413 C.3     1  UNL1        0.2560
     18 O           8.5009   40.8075   11.7507 O.3     1  UNL1       -0.4403
     19 N          13.9235   43.2505    6.2471 N.pl3   1  UNL1       -0.3314
     20 H          13.3539   43.9160    5.7976 H       1  UNL1        0.1469
     21 C          15.2715   43.0257    5.7363 C.3     1  UNL1        0.0869
     22 C          16.2253   44.1311    6.1778 C.3     1  UNL1        0.0180
     23 C          15.6023   45.4702    5.8453 C.3     1  UNL1        0.0017
     24 C          17.5500   44.0151    5.4463 C.3     1  UNL1        0.0017
     25 C          16.4632   44.0628    7.6752 C.3     1  UNL1        0.0017
     26 C          12.4409   39.5131   11.4362 C.3     1  UNL1        0.1371
     27 C          12.8128   38.3319   10.5534 C.3     1  UNL1        0.1378
     28 C          11.5616   37.6057   10.1224 C.3     1  UNL1        0.0341
     29 C          11.9416   36.1579   10.1977 C.3     1  UNL1        0.0346
     30 C          13.3737   36.1807   10.6780 C.3     1  UNL1        0.1422
     31 O          13.6265   37.4319   11.2578 O.3     1  UNL1       -0.3543
@<TRIPOS>BOND
     1    17    18    1
     2    15    18    1
     3    15     1    1
     4     2    13    1
     5     2     3   ar
     6    11    10    1
     7     4     5   ar
     8     5    19    1
     9    21    19    1
    10    21    22    1
    11    22    23    1
    12    22    24    1
    13    22    25    1
    14     6     8   ar
    15     7     9   ar
    16     7     3   ar
    17    26     9    1
    18    27    26    1
    19    27    28    1
    20    27    31    1
    21    28    29    1
    22    29    30    1
    23    30    31    1
    24    13    10   am
    25     9     1   ar
    26    15    16    2
    27     1     2   ar
    28    10    12    2
    29     3     4   ar
    30     5     6   ar
    31     7     8   ar
    32    13    14    1
    33    19    20    1
@<TRIPOS>MOLECULE
MolPort-004-978-380 CSSS00159439457 MCULE-6028275498 PubChem-45159086
 31 33 0 0 0
SMALL
GASTEIGER

@<TRIPOS>ATOM
      1 C           7.5173   41.7572    9.6180 C.ar    1  UNL1        0.1514
      2 C           7.0451   41.3265   10.8611 C.ar    1  UNL1        0.0757
      3 C           5.6869   41.5925   10.8736 C.ar    1  UNL1        0.0505
      4 C           4.7133   41.4725   11.8602 C.ar    1  UNL1        0.0202
      5 C           3.4074   41.8990   11.5445 C.ar    1  UNL1        0.0642
      6 C           3.1433   42.4445   10.2691 C.ar    1  UNL1        0.1147
      7 C           5.3884   42.1373    9.6547 C.ar    1  UNL1        0.1453
      8 N           4.1387   42.5641    9.3408 N.ar    1  UNL1       -0.2254
      9 N           6.4825   42.2402    8.8775 N.ar    1  UNL1       -0.3040
     10 C           8.4701   41.6306   12.9556 C.2     1  UNL1        0.2266
     11 C           9.5032   41.0216   13.8325 C.3     1  UNL1        0.0949
     12 O           8.1096   42.8197   13.1576 O.2     1  UNL1       -0.2748
     13 N           7.8561   40.8356   11.9375 N.am    1  UNL1       -0.2825
     14 H           8.0034   39.8630   11.9794 H       1  UNL1        0.1549
     15 C           8.9265   41.7000    9.1722 C.2     1  UNL1        0.3587
     16 O           9.5497   42.7622    8.9000 O.2     1  UNL1       -0.2432
     17 C          10.7065   40.1264    9.8198 C.3     1  UNL1        0.2560
     18 O           9.5646   40.4644    9.0470 O.3     1  UNL1       -0.4403
     19 N           2.3456   41.7970   12.4950 N.pl3   1  UNL1       -0.3314
     20 H           2.4214   41.1321   13.2171 H       1  UNL1        0.1469
     21 C           1.1536   42.6365   12.4407 C.3     1  UNL1        0.0869
     22 C           0.3834   42.5951   13.7566 C.3     1  UNL1        0.0180
     23 C           1.3705   42.7038   14.8993 C.3     1  UNL1        0.0017
     24 C          -0.3737   41.2865   13.8897 C.3     1  UNL1        0.0017
     25 C          -0.5896   43.7568   13.8411 C.3     1  UNL1        0.0017
     26 C           6.5343   42.8429    7.5498 C.3     1  UNL1        0.1371
     27 C           6.7036   41.7704    6.4849 C.3     1  UNL1        0.1378
     28 C           6.2739   40.4331    7.0375 C.3     1  UNL1        0.0341
     29 C           7.2861   39.4743    6.4879 C.3     1  UNL1        0.0346
     30 C           8.2154   40.3483    5.6788 C.3     1  UNL1        0.1422
     31 O           8.0478   41.6768    6.0945 O.3     1  UNL1       -0.3543
@<TRIPOS>BOND
     1    17    18    1
     2    15    18    1
     3    15     1    1
     4     2    13    1
     5     2     3   ar
     6    11    10    1
     7     4     5   ar
     8     5    19    1
     9    21    19    1
    10    21    22    1
    11    22    23    1
    12    22    24    1
    13    22    25    1
    14     6     8   ar
    15     7     9   ar
    16     7     3   ar
    17    26     9    1
    18    27    26    1
    19    27    28    1
    20    27    31    1
    21    28    29    1
    22    29    30    1
    23    30    31    1
    24    13    10   am
    25     9     1   ar
    26    15    16    2
    27     1     2   ar
    28    10    12    2
    29     3     4   ar
    30     5     6   ar
    31     7     8   ar
    32    13    14    1
    33    19    20    1
@<TRIPOS>MOLECULE
MolPort-004-978-380 CSSS00159439457 MCULE-6028275498 PubChem-45159086
 31 33 0 0 0
SMALL
GASTEIGER

@<TRIPOS>ATOM
      1 C          11.6878   40.1124    8.8362 C.ar    1  UNL1        0.1514
      2 C          12.9452   40.6428    9.1387 C.ar    1  UNL1        0.0757
      3 C          13.2622   41.5045    8.1029 C.ar    1  UNL1        0.0505
      4 C          14.4060   42.2386    7.8059 C.ar    1  UNL1        0.0202
      5 C          14.4109   42.9852    6.6102 C.ar    1  UNL1        0.0642
      6 C          13.2841   42.9440    5.7602 C.ar    1  UNL1        0.1147
      7 C          12.1972   41.4851    7.2444 C.ar    1  UNL1        0.1453
      8 N          12.1925   42.1885    6.0835 N.ar    1  UNL1       -0.2254
      9 N          11.2308   40.6525    7.6735 N.ar    1  UNL1       -0.3040
     10 C          14.8187   39.2741   10.2001 C.2     1  UNL1        0.2266
     11 C          15.3975   38.7709   11.4725 C.3     1  UNL1        0.0949
     12 O          15.2943   38.8773    9.1042 O.2     1  UNL1       -0.2748
     13 N          13.7736   40.2497   10.2417 N.am    1  UNL1       -0.2825
     14 H          13.6078   40.6914   11.1057 H       1  UNL1        0.1549
     15 C          10.9622   39.1146    9.6522 C.2     1  UNL1        0.3587
     16 O          10.9323   37.9048    9.2967 O.2     1  UNL1       -0.2432
     17 C          10.1142   40.8869   11.1366 C.3     1  UNL1        0.2560
     18 O          10.3036   39.5171   10.8157 O.3     1  UNL1       -0.4403
     19 N          15.5395   43.7780    6.2375 N.pl3   1  UNL1       -0.3314
     20 H          15.6947   43.9575    5.2820 H       1  UNL1        0.1469
     21 C          16.4718   44.3328    7.2129 C.3     1  UNL1        0.0869
     22 C          17.8203   43.6219    7.1607 C.3     1  UNL1        0.0180
     23 C          18.1731   43.3579    5.7124 C.3     1  UNL1        0.0017
     24 C          17.7518   42.2954    7.8950 C.3     1  UNL1        0.0017
     25 C          18.9036   44.4887    7.7759 C.3     1  UNL1        0.0017
     26 C           9.9954   40.3385    6.9636 C.3     1  UNL1        0.1371
     27 C           8.9640   41.4351    7.1798 C.3     1  UNL1        0.1378
     28 C           7.9041   40.9536    8.1406 C.3     1  UNL1        0.0341
     29 C           6.6282   41.4939    7.5696 C.3     1  UNL1        0.0346
     30 C           7.0672   42.2270    6.3238 C.3     1  UNL1        0.1422
     31 O           8.3432   41.7687    5.9667 O.3     1  UNL1       -0.3543
@<TRIPOS>BOND
     1    17    18    1
     2    15    18    1
     3    15     1    1
     4     2    13    1
     5     2     3   ar
     6    11    10    1
     7     4     5   ar
     8     5    19    1
     9    21    19    1
    10    21    22    1
    11    22    23    1
    12    22    24    1
    13    22    25    1
    14     6     8   ar
    15     7     9   ar
    16     7     3   ar
    17    26     9    1
    18    27    26    1
    19    27    28    1
    20    27    31    1
    21    28    29    1
    22    29    30    1
    23    30    31    1
    24    13    10   am
    25     9     1   ar
    26    15    16    2
    27     1     2   ar
    28    10    12    2
    29     3     4   ar
    30     5     6   ar
    31     7     8   ar
    32    13    14    1
    33    19    20    1
