@<TRIPOS>MOLECULE
MolPort-010-852-391 41076402 ChemDiv-G952-3434 MCULE-9208365050 PubChem-52095934 ZINC000041076402 ZINC41076402
 25 27 0 0 0
SMALL
GASTEIGER

@<TRIPOS>ATOM
      1 C          11.3979   41.9324    7.1067 C.2     1  UNL1        0.2511
      2 N          12.3750   42.1643    6.0822 N.am    1  UNL1       -0.2592
      3 O          11.6186   42.2860    8.2965 O.2     1  UNL1       -0.2698
      4 H          12.1434   41.8637    5.1738 H       1  UNL1        0.1571
      5 C          16.8910   43.0414    7.5778 C.ar    1  UNL1        0.1643
      6 C          15.6344   44.0924    6.2637 C.ar    1  UNL1        0.2195
      7 C          13.6537   42.7890    6.2471 C.ar    1  UNL1        0.1882
      8 N          17.5773   44.1253    7.1237 N.ar    1  UNL1       -0.1310
      9 N          16.7776   44.7983    6.2859 N.ar    1  UNL1       -0.1202
     10 N          14.6074   42.2597    7.0651 N.ar    1  UNL1       -0.1399
     11 N          15.6779   43.0355    7.0267 N.ar    1  UNL1       -0.1881
     12 S          14.1710   44.2467    5.4655 S.2     1  UNL1       -0.0111
     13 C          17.4202   42.0062    8.5154 C.3     1  UNL1        0.0677
     14 C          16.8482   40.1002   10.0219 C.3     1  UNL1        0.0005
     15 C          16.2982   41.1390    9.0628 C.3     1  UNL1        0.0080
     16 C          10.1245   41.2745    6.7648 C.ar    1  UNL1        0.0597
     17 C           8.9637   41.5473    7.5020 C.ar    1  UNL1        0.0416
     18 C           7.7525   40.9264    7.1829 C.ar    1  UNL1        0.1419
     19 C           7.7034   40.0208    6.1116 C.ar    1  UNL1        0.0738
     20 C           8.8512   39.7376    5.3665 C.ar    1  UNL1        0.1419
     21 C          10.0603   40.3683    5.6981 C.ar    1  UNL1        0.0416
     22 C           6.6858   41.5743    9.3185 C.3     1  UNL1        0.2525
     23 O           6.6183   41.2258    7.9426 O.3     1  UNL1       -0.4713
     24 C           9.6781   38.8310    3.2190 C.3     1  UNL1        0.2525
     25 O           8.7640   38.8305    4.3070 O.3     1  UNL1       -0.4713
@<TRIPOS>BOND
     1    14    15    1
     2    15    13    1
     3    13     5    1
     4     6    12   ar
     5     7    12   ar
     6     7     2    1
     7     1    16    1
     8    17    18   ar
     9    18    23    1
    10    22    23    1
    11    19    20   ar
    12    20    25    1
    13    24    25    1
    14    21    16   ar
    15     8     9   ar
    16     2     1   am
    17    11    10   ar
    18    11     5   ar
    19    11     6   ar
    20     5     8   ar
    21     6     9   ar
    22     7    10   ar
    23     1     3    2
    24    16    17   ar
    25    18    19   ar
    26    20    21   ar
    27     2     4    1
@<TRIPOS>MOLECULE
MolPort-010-852-391 41076402 ChemDiv-G952-3434 MCULE-9208365050 PubChem-52095934 ZINC000041076402 ZINC41076402
 25 27 0 0 0
SMALL
GASTEIGER

@<TRIPOS>ATOM
      1 C           9.5245   42.2503    9.8857 C.2     1  UNL1        0.2511
      2 N           8.6214   42.2236    8.7713 N.am    1  UNL1       -0.2592
      3 O           9.1906   42.8002   10.9699 O.2     1  UNL1       -0.2698
      4 H           8.9419   41.7805    7.9527 H       1  UNL1        0.1571
      5 C           3.8177   42.6558    9.1430 C.ar    1  UNL1        0.1643
      6 C           5.2923   44.0226    8.5367 C.ar    1  UNL1        0.2195
      7 C           7.3003   42.7763    8.7292 C.ar    1  UNL1        0.1882
      8 N           3.1983   43.8296    8.8420 N.ar    1  UNL1       -0.1310
      9 N           4.1366   44.7032    8.4537 N.ar    1  UNL1       -0.1202
     10 N           6.2069   42.0422    9.0816 N.ar    1  UNL1       -0.1399
     11 N           5.1284   42.7961    8.9487 N.ar    1  UNL1       -0.1881
     12 S           6.8997   44.3932    8.2510 S.2     1  UNL1       -0.0111
     13 C           3.1446   41.4195    9.6422 C.3     1  UNL1        0.0677
     14 C           4.1233   40.2044   11.5904 C.3     1  UNL1        0.0005
     15 C           3.2094   41.3356   11.1586 C.3     1  UNL1        0.0080
     16 C          10.8550   41.6294    9.7615 C.ar    1  UNL1        0.0597
     17 C          11.6186   41.8122    8.6001 C.ar    1  UNL1        0.0416
     18 C          12.8815   41.2258    8.4760 C.ar    1  UNL1        0.1419
     19 C          13.3861   40.4464    9.5287 C.ar    1  UNL1        0.0738
     20 C          12.6380   40.2541   10.6932 C.ar    1  UNL1        0.1419
     21 C          11.3716   40.8489   10.8041 C.ar    1  UNL1        0.0416
     22 C          14.7551   42.2732    7.2468 C.3     1  UNL1        0.2525
     23 O          13.6108   41.4326    7.3018 O.3     1  UNL1       -0.4713
     24 C          14.0414   38.3738   11.4758 C.3     1  UNL1        0.2525
     25 O          13.1730   39.4717   11.7203 O.3     1  UNL1       -0.4713
@<TRIPOS>BOND
     1    14    15    1
     2    15    13    1
     3    13     5    1
     4     6    12   ar
     5     7    12   ar
     6     7     2    1
     7     1    16    1
     8    17    18   ar
     9    18    23    1
    10    22    23    1
    11    19    20   ar
    12    20    25    1
    13    24    25    1
    14    21    16   ar
    15     8     9   ar
    16     2     1   am
    17    11    10   ar
    18    11     5   ar
    19    11     6   ar
    20     5     8   ar
    21     6     9   ar
    22     7    10   ar
    23     1     3    2
    24    16    17   ar
    25    18    19   ar
    26    20    21   ar
    27     2     4    1
@<TRIPOS>MOLECULE
MolPort-010-852-391 41076402 ChemDiv-G952-3434 MCULE-9208365050 PubChem-52095934 ZINC000041076402 ZINC41076402
 25 27 0 0 0
SMALL
GASTEIGER

@<TRIPOS>ATOM
      1 C          10.9431   41.6305    8.6532 C.2     1  UNL1        0.2511
      2 N           9.9525   41.9442    9.6423 N.am    1  UNL1       -0.2592
      3 O          10.6987   41.7893    7.4266 O.2     1  UNL1       -0.2698
      4 H          10.2041   41.7969   10.5826 H       1  UNL1        0.1571
      5 C           5.1373   42.1948    9.2529 C.ar    1  UNL1        0.1643
      6 C           6.6346   43.6276    8.9128 C.ar    1  UNL1        0.2195
      7 C           8.6341   42.4500    9.4003 C.ar    1  UNL1        0.1882
      8 N           4.5279   43.3524    8.8778 N.ar    1  UNL1       -0.1310
      9 N           5.4809   44.2680    8.6591 N.ar    1  UNL1       -0.1202
     10 N           7.5283   41.6690    9.5615 N.ar    1  UNL1       -0.1399
     11 N           6.4557   42.3866    9.2720 N.ar    1  UNL1       -0.1881
     12 S           8.2512   44.0622    8.8928 S.2     1  UNL1       -0.0111
     13 C           4.4427   40.9238    9.6172 C.3     1  UNL1        0.0677
     14 C           3.4114   41.6717   11.7635 C.3     1  UNL1        0.0005
     15 C           4.4133   40.7288   11.1243 C.3     1  UNL1        0.0080
     16 C          12.2584   41.1176    9.0751 C.ar    1  UNL1        0.0597
     17 C          12.3648   40.2532   10.1736 C.ar    1  UNL1        0.0416
     18 C          13.6097   39.7632   10.5790 C.ar    1  UNL1        0.1419
     19 C          14.7628   40.1437    9.8750 C.ar    1  UNL1        0.0738
     20 C          14.6745   41.0046    8.7778 C.ar    1  UNL1        0.1419
     21 C          13.4181   41.4889    8.3819 C.ar    1  UNL1        0.0416
     22 C          14.4443   37.7105   11.6781 C.3     1  UNL1        0.2525
     23 O          13.6725   38.9036   11.6792 O.3     1  UNL1       -0.4713
     24 C          17.0299   41.7594    8.7760 C.3     1  UNL1        0.2525
     25 O          15.8442   41.3616    8.1013 O.3     1  UNL1       -0.4713
@<TRIPOS>BOND
     1    14    15    1
     2    15    13    1
     3    13     5    1
     4     6    12   ar
     5     7    12   ar
     6     7     2    1
     7     1    16    1
     8    17    18   ar
     9    18    23    1
    10    22    23    1
    11    19    20   ar
    12    20    25    1
    13    24    25    1
    14    21    16   ar
    15     8     9   ar
    16     2     1   am
    17    11    10   ar
    18    11     5   ar
    19    11     6   ar
    20     5     8   ar
    21     6     9   ar
    22     7    10   ar
    23     1     3    2
    24    16    17   ar
    25    18    19   ar
    26    20    21   ar
    27     2     4    1
@<TRIPOS>MOLECULE
MolPort-010-852-391 41076402 ChemDiv-G952-3434 MCULE-9208365050 PubChem-52095934 ZINC000041076402 ZINC41076402
 25 27 0 0 0
SMALL
GASTEIGER

@<TRIPOS>ATOM
      1 C           9.8422   41.6616   10.0851 C.2     1  UNL1        0.2511
      2 N           9.1385   42.1574    8.9375 N.am    1  UNL1       -0.2592
      3 O           9.2826   41.6224   11.2141 O.2     1  UNL1       -0.2698
      4 H           9.6311   42.1636    8.0851 H       1  UNL1        0.1571
      5 C           4.3107   42.3107    9.2005 C.ar    1  UNL1        0.1643
      6 C           5.7261   43.8009    8.7685 C.ar    1  UNL1        0.2195
      7 C           7.7916   42.6446    8.9063 C.ar    1  UNL1        0.1882
      8 N           3.6380   43.4750    8.9905 N.ar    1  UNL1       -0.1310
      9 N           4.5385   44.4273    8.7136 N.ar    1  UNL1       -0.1202
     10 N           6.7298   41.8265    9.1557 N.ar    1  UNL1       -0.1399
     11 N           5.6167   42.5344    9.0602 N.ar    1  UNL1       -0.1881
     12 S           7.3184   44.2770    8.5675 S.2     1  UNL1       -0.0111
     13 C           3.6914   41.0008    9.5627 C.3     1  UNL1        0.0677
     14 C           3.1944   41.6126   11.9308 C.3     1  UNL1        0.0005
     15 C           3.9469   40.6594   11.0217 C.3     1  UNL1        0.0080
     16 C          11.2323   41.1941    9.9427 C.ar    1  UNL1        0.0597
     17 C          11.8223   40.4055   10.9404 C.ar    1  UNL1        0.0416
     18 C          13.1407   39.9590   10.8114 C.ar    1  UNL1        0.1419
     19 C          13.8776   40.3065    9.6684 C.ar    1  UNL1        0.0738
     20 C          13.3046   41.0919    8.6645 C.ar    1  UNL1        0.1419
     21 C          11.9800   41.5332    8.8073 C.ar    1  UNL1        0.0416
     22 C          14.1487   37.8467   11.6120 C.3     1  UNL1        0.2525
     23 O          13.6917   39.1747   11.8285 O.3     1  UNL1       -0.4713
     24 C          13.7287   42.4832    6.6640 C.3     1  UNL1        0.2525
     25 O          14.0690   41.4180    7.5408 O.3     1  UNL1       -0.4713
@<TRIPOS>BOND
     1    14    15    1
     2    15    13    1
     3    13     5    1
     4     6    12   ar
     5     7    12   ar
     6     7     2    1
     7     1    16    1
     8    17    18   ar
     9    18    23    1
    10    22    23    1
    11    19    20   ar
    12    20    25    1
    13    24    25    1
    14    21    16   ar
    15     8     9   ar
    16     2     1   am
    17    11    10   ar
    18    11     5   ar
    19    11     6   ar
    20     5     8   ar
    21     6     9   ar
    22     7    10   ar
    23     1     3    2
    24    16    17   ar
    25    18    19   ar
    26    20    21   ar
    27     2     4    1
@<TRIPOS>MOLECULE
MolPort-010-852-391 41076402 ChemDiv-G952-3434 MCULE-9208365050 PubChem-52095934 ZINC000041076402 ZINC41076402
 25 27 0 0 0
SMALL
GASTEIGER

@<TRIPOS>ATOM
      1 C          11.2137   41.9097    7.5255 C.2     1  UNL1        0.2511
      2 N          12.3242   41.8031    6.6235 N.am    1  UNL1       -0.2592
      3 O          11.3687   42.3895    8.6809 O.2     1  UNL1       -0.2698
      4 H          12.1383   41.4186    5.7364 H       1  UNL1        0.1571
      5 C          16.7470   42.0152    8.5715 C.ar    1  UNL1        0.1643
      6 C          15.8606   43.1125    7.0156 C.ar    1  UNL1        0.2195
      7 C          13.6763   42.1995    6.8828 C.ar    1  UNL1        0.1882
      8 N          17.6741   42.8935    8.1013 N.ar    1  UNL1       -0.1310
      9 N          17.1109   43.5957    7.1092 N.ar    1  UNL1       -0.1202
     10 N          14.4197   41.6071    7.8602 N.ar    1  UNL1       -0.1399
     11 N          15.6189   42.1646    7.8782 N.ar    1  UNL1       -0.1881
     12 S          14.5450   43.4341    6.0316 S.2     1  UNL1       -0.0111
     13 C          16.9655   41.0209    9.6643 C.3     1  UNL1        0.0677
     14 C          18.1987   38.9659   10.3612 C.3     1  UNL1        0.0005
     15 C          18.0754   40.0469    9.3041 C.3     1  UNL1        0.0080
     16 C           9.8796   41.4538    7.0972 C.ar    1  UNL1        0.0597
     17 C           9.7387   40.6224    5.9772 C.ar    1  UNL1        0.0416
     18 C           8.4758   40.1865    5.5657 C.ar    1  UNL1        0.1419
     19 C           7.3396   40.5884    6.2851 C.ar    1  UNL1        0.0738
     20 C           7.4623   41.4169    7.4037 C.ar    1  UNL1        0.1419
     21 C           8.7365   41.8469    7.8056 C.ar    1  UNL1        0.0416
     22 C           9.4864   39.0752    3.6004 C.3     1  UNL1        0.2525
     23 O           8.3785   39.3585    4.4440 O.3     1  UNL1       -0.4713
     24 C           5.8791   43.1479    8.1876 C.3     1  UNL1        0.2525
     25 O           6.3086   41.7966    8.0951 O.3     1  UNL1       -0.4713
@<TRIPOS>BOND
     1    14    15    1
     2    15    13    1
     3    13     5    1
     4     6    12   ar
     5     7    12   ar
     6     7     2    1
     7     1    16    1
     8    17    18   ar
     9    18    23    1
    10    22    23    1
    11    19    20   ar
    12    20    25    1
    13    24    25    1
    14    21    16   ar
    15     8     9   ar
    16     2     1   am
    17    11    10   ar
    18    11     5   ar
    19    11     6   ar
    20     5     8   ar
    21     6     9   ar
    22     7    10   ar
    23     1     3    2
    24    16    17   ar
    25    18    19   ar
    26    20    21   ar
    27     2     4    1
@<TRIPOS>MOLECULE
MolPort-010-852-391 41076402 ChemDiv-G952-3434 MCULE-9208365050 PubChem-52095934 ZINC000041076402 ZINC41076402
 25 27 0 0 0
SMALL
GASTEIGER

@<TRIPOS>ATOM
      1 C          10.2134   41.2677    9.9084 C.2     1  UNL1        0.2511
      2 N          11.1048   40.3765    9.2233 N.am    1  UNL1       -0.2592
      3 O          10.6427   42.0392   10.8082 O.2     1  UNL1       -0.2698
      4 H          10.7078   39.7986    8.5321 H       1  UNL1        0.1571
      5 C          15.8787   41.1065    8.9458 C.ar    1  UNL1        0.1643
      6 C          14.7464   39.7308   10.0574 C.ar    1  UNL1        0.2195
      7 C          12.5141   40.2424    9.4430 C.ar    1  UNL1        0.1882
      8 N          16.7422   40.3577    9.6844 N.ar    1  UNL1       -0.1310
      9 N          16.0226   39.4783   10.3938 N.ar    1  UNL1       -0.1202
     10 N          13.4159   41.0432    8.8072 N.ar    1  UNL1       -0.1399
     11 N          14.6337   40.7020    9.1942 N.ar    1  UNL1       -0.1881
     12 S          13.2632   39.0977   10.5068 S.2     1  UNL1       -0.0111
     13 C          16.2589   42.2234    8.0300 C.3     1  UNL1        0.0677
     14 C          17.9692   43.9635    7.5044 C.3     1  UNL1        0.0005
     15 C          17.5256   42.9151    8.5070 C.3     1  UNL1        0.0080
     16 C           8.7824   41.2810    9.5570 C.ar    1  UNL1        0.0597
     17 C           7.8113   41.5111   10.5415 C.ar    1  UNL1        0.0416
     18 C           6.4522   41.5248   10.2147 C.ar    1  UNL1        0.1419
     19 C           6.0607   41.3054    8.8848 C.ar    1  UNL1        0.0738
     20 C           7.0158   41.0745    7.8911 C.ar    1  UNL1        0.1419
     21 C           8.3769   41.0635    8.2336 C.ar    1  UNL1        0.0416
     22 C           4.5300   40.8032   11.5941 C.3     1  UNL1        0.2525
     23 O           5.5158   41.7580   11.2257 O.3     1  UNL1       -0.4713
     24 C           6.3763   39.5608    6.0425 C.3     1  UNL1        0.2525
     25 O           6.5885   40.8599    6.5779 O.3     1  UNL1       -0.4713
@<TRIPOS>BOND
     1    14    15    1
     2    15    13    1
     3    13     5    1
     4     6    12   ar
     5     7    12   ar
     6     7     2    1
     7     1    16    1
     8    17    18   ar
     9    18    23    1
    10    22    23    1
    11    19    20   ar
    12    20    25    1
    13    24    25    1
    14    21    16   ar
    15     8     9   ar
    16     2     1   am
    17    11    10   ar
    18    11     5   ar
    19    11     6   ar
    20     5     8   ar
    21     6     9   ar
    22     7    10   ar
    23     1     3    2
    24    16    17   ar
    25    18    19   ar
    26    20    21   ar
    27     2     4    1
@<TRIPOS>MOLECULE
MolPort-010-852-391 41076402 ChemDiv-G952-3434 MCULE-9208365050 PubChem-52095934 ZINC000041076402 ZINC41076402
 25 27 0 0 0
SMALL
GASTEIGER

@<TRIPOS>ATOM
      1 C          11.1071   41.2010    8.0217 C.2     1  UNL1        0.2511
      2 N          12.2926   40.5670    7.5209 N.am    1  UNL1       -0.2592
      3 O          11.1827   42.0993    8.9031 O.2     1  UNL1       -0.2698
      4 H          12.1665   39.8723    6.8348 H       1  UNL1        0.1571
      5 C          16.6919   42.5670    7.7354 C.ar    1  UNL1        0.1643
      6 C          15.8189   41.0096    8.8412 C.ar    1  UNL1        0.2195
      7 C          13.6412   40.8424    7.9181 C.ar    1  UNL1        0.1882
      8 N          17.6093   42.1369    8.6440 N.ar    1  UNL1       -0.1310
      9 N          17.0554   41.1425    9.3501 N.ar    1  UNL1       -0.1202
     10 N          14.3793   41.8167    7.3143 N.ar    1  UNL1       -0.1399
     11 N          15.5764   41.8519    7.8754 N.ar    1  UNL1       -0.1881
     12 S          14.5084   40.0229    9.1751 S.2     1  UNL1       -0.0111
     13 C          16.8884   43.6816    6.7609 C.3     1  UNL1        0.0677
     14 C          15.0275   44.1781    5.1733 C.3     1  UNL1        0.0005
     15 C          15.5987   44.4582    6.5505 C.3     1  UNL1        0.0080
     16 C           9.7888   40.7981    7.5011 C.ar    1  UNL1        0.0597
     17 C           9.6853   40.1152    6.2812 C.ar    1  UNL1        0.0416
     18 C           8.4377   39.7303    5.7818 C.ar    1  UNL1        0.1419
     19 C           7.2789   40.0332    6.5137 C.ar    1  UNL1        0.0738
     20 C           7.3643   40.7134    7.7314 C.ar    1  UNL1        0.1419
     21 C           8.6235   41.0937    8.2208 C.ar    1  UNL1        0.0416
     22 C           9.4492   39.0534    3.6284 C.3     1  UNL1        0.2525
     23 O           8.3778   39.0510    4.5619 O.3     1  UNL1       -0.4713
     24 C           6.1824   41.7035    9.6654 C.3     1  UNL1        0.2525
     25 O           6.1889   40.9977    8.4321 O.3     1  UNL1       -0.4713
@<TRIPOS>BOND
     1    14    15    1
     2    15    13    1
     3    13     5    1
     4     6    12   ar
     5     7    12   ar
     6     7     2    1
     7     1    16    1
     8    17    18   ar
     9    18    23    1
    10    22    23    1
    11    19    20   ar
    12    20    25    1
    13    24    25    1
    14    21    16   ar
    15     8     9   ar
    16     2     1   am
    17    11    10   ar
    18    11     5   ar
    19    11     6   ar
    20     5     8   ar
    21     6     9   ar
    22     7    10   ar
    23     1     3    2
    24    16    17   ar
    25    18    19   ar
    26    20    21   ar
    27     2     4    1
@<TRIPOS>MOLECULE
MolPort-010-852-391 41076402 ChemDiv-G952-3434 MCULE-9208365050 PubChem-52095934 ZINC000041076402 ZINC41076402
 25 27 0 0 0
SMALL
GASTEIGER

@<TRIPOS>ATOM
      1 C           9.7649   40.6131    8.7498 C.2     1  UNL1        0.2511
      2 N           8.9460   41.3128    9.6975 N.am    1  UNL1       -0.2592
      3 O           9.5172   40.6784    7.5154 O.2     1  UNL1       -0.2698
      4 H           9.1905   41.2204   10.6467 H       1  UNL1        0.1571
      5 C           4.3686   42.7963    9.2004 C.ar    1  UNL1        0.1643
      6 C           6.1920   43.7636    8.8126 C.ar    1  UNL1        0.2195
      7 C           7.8085   42.1322    9.4025 C.ar    1  UNL1        0.1882
      8 N           4.0873   44.0497    8.7512 N.ar    1  UNL1       -0.1310
      9 N           5.2487   44.6688    8.5019 N.ar    1  UNL1       -0.1202
     10 N           6.5354   41.6796    9.5840 N.ar    1  UNL1       -0.1399
     11 N           5.6909   42.6359    9.2350 N.ar    1  UNL1       -0.1881
     12 S           7.8660   43.7565    8.8010 S.2     1  UNL1       -0.0111
     13 C           3.3622   41.7754    9.6192 C.3     1  UNL1        0.0677
     14 C           3.9387   40.2589   11.5159 C.3     1  UNL1        0.0005
     15 C           3.3528   41.6038   11.1295 C.3     1  UNL1        0.0080
     16 C          10.9058   39.8103    9.2241 C.ar    1  UNL1        0.0597
     17 C          10.7630   38.4330    9.4433 C.ar    1  UNL1        0.0416
     18 C          11.8415   37.6658    9.8933 C.ar    1  UNL1        0.1419
     19 C          13.0790   38.2860   10.1264 C.ar    1  UNL1        0.0738
     20 C          13.2384   39.6578    9.9129 C.ar    1  UNL1        0.1419
     21 C          12.1470   40.4157    9.4611 C.ar    1  UNL1        0.0416
     22 C          12.7414   35.3928   10.2699 C.3     1  UNL1        0.2525
     23 O          11.6576   36.2958   10.0994 O.3     1  UNL1       -0.4713
     24 C          15.3661   40.6318    9.1119 C.3     1  UNL1        0.2525
     25 O          14.4852   40.2405   10.1560 O.3     1  UNL1       -0.4713
@<TRIPOS>BOND
     1    14    15    1
     2    15    13    1
     3    13     5    1
     4     6    12   ar
     5     7    12   ar
     6     7     2    1
     7     1    16    1
     8    17    18   ar
     9    18    23    1
    10    22    23    1
    11    19    20   ar
    12    20    25    1
    13    24    25    1
    14    21    16   ar
    15     8     9   ar
    16     2     1   am
    17    11    10   ar
    18    11     5   ar
    19    11     6   ar
    20     5     8   ar
    21     6     9   ar
    22     7    10   ar
    23     1     3    2
    24    16    17   ar
    25    18    19   ar
    26    20    21   ar
    27     2     4    1
@<TRIPOS>MOLECULE
MolPort-010-852-391 41076402 ChemDiv-G952-3434 MCULE-9208365050 PubChem-52095934 ZINC000041076402 ZINC41076402
 25 27 0 0 0
SMALL
GASTEIGER

@<TRIPOS>ATOM
      1 C          11.0847   41.2617    8.0560 C.2     1  UNL1        0.2511
      2 N          12.2756   40.6807    7.5062 N.am    1  UNL1       -0.2592
      3 O          11.1528   42.0897    9.0042 O.2     1  UNL1       -0.2698
      4 H          12.1554   40.0400    6.7685 H       1  UNL1        0.1571
      5 C          16.5919   42.8058    8.0107 C.ar    1  UNL1        0.1643
      6 C          15.8159   41.0289    8.8176 C.ar    1  UNL1        0.2195
      7 C          13.6222   40.9383    7.9222 C.ar    1  UNL1        0.1882
      8 N          17.5514   42.2549    8.8030 N.ar    1  UNL1       -0.1310
      9 N          17.0595   41.1205    9.3183 N.ar    1  UNL1       -0.1202
     10 N          14.3017   42.0422    7.4999 N.ar    1  UNL1       -0.1399
     11 N          15.5115   42.0262    8.0341 N.ar    1  UNL1       -0.1881
     12 S          14.5575   39.9374    8.9836 S.2     1  UNL1       -0.0111
     13 C          16.7143   44.0921    7.2617 C.3     1  UNL1        0.0677
     14 C          14.9813   44.7492    5.5900 C.3     1  UNL1        0.0005
     15 C          16.2404   43.9365    5.8258 C.3     1  UNL1        0.0080
     16 C           9.7696   40.8869    7.5071 C.ar    1  UNL1        0.0597
     17 C           8.5983   41.1379    8.2353 C.ar    1  UNL1        0.0416
     18 C           7.3476   40.7846    7.7203 C.ar    1  UNL1        0.1419
     19 C           7.2691   40.1721    6.4598 C.ar    1  UNL1        0.0738
     20 C           8.4270   39.9147    5.7209 C.ar    1  UNL1        0.1419
     21 C           9.6759   40.2748    6.2502 C.ar    1  UNL1        0.0416
     22 C           6.2605   41.4222    9.8487 C.3     1  UNL1        0.2525
     23 O           6.2041   41.0523    8.4778 O.3     1  UNL1       -0.4713
     24 C           9.4263   38.7788    3.7641 C.3     1  UNL1        0.2525
     25 O           8.3098   39.3032    4.4696 O.3     1  UNL1       -0.4713
@<TRIPOS>BOND
     1    14    15    1
     2    15    13    1
     3    13     5    1
     4     6    12   ar
     5     7    12   ar
     6     7     2    1
     7     1    16    1
     8    17    18   ar
     9    18    23    1
    10    22    23    1
    11    19    20   ar
    12    20    25    1
    13    24    25    1
    14    21    16   ar
    15     8     9   ar
    16     2     1   am
    17    11    10   ar
    18    11     5   ar
    19    11     6   ar
    20     5     8   ar
    21     6     9   ar
    22     7    10   ar
    23     1     3    2
    24    16    17   ar
    25    18    19   ar
    26    20    21   ar
    27     2     4    1
@<TRIPOS>MOLECULE
MolPort-010-852-391 41076402 ChemDiv-G952-3434 MCULE-9208365050 PubChem-52095934 ZINC000041076402 ZINC41076402
 25 27 0 0 0
SMALL
GASTEIGER

@<TRIPOS>ATOM
      1 C           9.8451   40.5741    8.7803 C.2     1  UNL1        0.2511
      2 N           8.9997   41.2443    9.7259 N.am    1  UNL1       -0.2592
      3 O           9.6290   40.6736    7.5422 O.2     1  UNL1       -0.2698
      4 H           9.2202   41.1259   10.6780 H       1  UNL1        0.1571
      5 C           4.4318   42.7591    9.2355 C.ar    1  UNL1        0.1643
      6 C           6.2606   43.7037    8.8187 C.ar    1  UNL1        0.2195
      7 C           7.8672   42.0686    9.4249 C.ar    1  UNL1        0.1882
      8 N           4.1581   44.0071    8.7670 N.ar    1  UNL1       -0.1310
      9 N           5.3230   44.6117    8.4992 N.ar    1  UNL1       -0.1202
     10 N           6.5916   41.6302    9.6229 N.ar    1  UNL1       -0.1399
     11 N           5.7529   42.5877    9.2636 N.ar    1  UNL1       -0.1881
     12 S           7.9344   43.6819    8.7955 S.2     1  UNL1       -0.0111
     13 C           3.4196   41.7542    9.6787 C.3     1  UNL1        0.0677
     14 C           3.9473   40.1949   11.5547 C.3     1  UNL1        0.0005
     15 C           3.4469   41.5793   11.1884 C.3     1  UNL1        0.0080
     16 C          10.9764   39.7614    9.2609 C.ar    1  UNL1        0.0597
     17 C          12.2137   40.3596    9.5377 C.ar    1  UNL1        0.0416
     18 C          13.2909   39.5943    9.9938 C.ar    1  UNL1        0.1419
     19 C          13.1268   38.2121   10.1751 C.ar    1  UNL1        0.0738
     20 C          11.9002   37.6000    9.9038 C.ar    1  UNL1        0.1419
     21 C          10.8272   38.3807    9.4465 C.ar    1  UNL1        0.0416
     22 C          15.7611   39.6706    9.8893 C.3     1  UNL1        0.2525
     23 O          14.5076   40.2291   10.2583 O.3     1  UNL1       -0.4713
     24 C          12.8945   35.3495   10.1569 C.3     1  UNL1        0.2525
     25 O          11.7742   36.2214   10.0961 O.3     1  UNL1       -0.4713
@<TRIPOS>BOND
     1    14    15    1
     2    15    13    1
     3    13     5    1
     4     6    12   ar
     5     7    12   ar
     6     7     2    1
     7     1    16    1
     8    17    18   ar
     9    18    23    1
    10    22    23    1
    11    19    20   ar
    12    20    25    1
    13    24    25    1
    14    21    16   ar
    15     8     9   ar
    16     2     1   am
    17    11    10   ar
    18    11     5   ar
    19    11     6   ar
    20     5     8   ar
    21     6     9   ar
    22     7    10   ar
    23     1     3    2
    24    16    17   ar
    25    18    19   ar
    26    20    21   ar
    27     2     4    1
