@<TRIPOS>MOLECULE
MolPort-006-503-785 ChemDiv-V002-9449 MCULE-3434241118 PubChem-8090333 ZINC000006833694 ZINC06833694
 28 30 0 0 0
SMALL
GASTEIGER

@<TRIPOS>ATOM
      1 C          12.0518   40.4480    7.3994 C.ar    1  UNL1        0.0847
      2 C          11.8231   41.5956    6.6242 C.ar    1  UNL1        0.0205
      3 C          12.7988   42.5883    6.5236 C.ar    1  UNL1        0.0162
      4 C          14.0192   42.4556    7.2036 C.ar    1  UNL1        0.0504
      5 C          14.2483   41.3171    7.9834 C.ar    1  UNL1        0.0162
      6 C          13.2697   40.3261    8.0881 C.ar    1  UNL1        0.0205
      7 C           9.1402   38.4819    7.2677 C.ar    1  UNL1        0.3384
      8 C          10.8762   38.4654    8.4451 C.ar    1  UNL1        0.1706
      9 N           9.9160   39.4717    6.7937 N.ar    1  UNL1       -0.1077
     10 N          11.0099   39.4624    7.5359 N.ar    1  UNL1       -0.2080
     11 N           9.6976   37.8245    8.3068 N.ar    1  UNL1       -0.1738
     12 C          11.8768   38.0651    9.4508 C.ar    1  UNL1        0.0634
     13 C          12.1177   38.8676   10.5736 C.ar    1  UNL1        0.1430
     14 C          13.0676   38.4789   11.5241 C.ar    1  UNL1        0.0297
     15 C          13.7642   37.2782   11.3707 C.ar    1  UNL1        0.0023
     16 C          13.5077   36.4610   10.2677 C.ar    1  UNL1        0.0002
     17 C          12.5642   36.8511    9.3132 C.ar    1  UNL1        0.0053
     18 F          11.4532   40.0378   10.7415 F       1  UNL1       -0.2041
     19 C           7.0195   39.1946    6.2566 C.3     1  UNL1        0.2559
     20 O           7.8879   38.1799    6.7349 O.3     1  UNL1       -0.4416
     21 C          15.5284   44.0467    5.8885 C.2     1  UNL1        0.2261
     22 O          14.9435   43.8497    4.7898 O.2     1  UNL1       -0.2748
     23 N          15.0556   43.4407    7.0980 N.am    1  UNL1       -0.2839
     24 H          15.4835   43.7282    7.9368 H       1  UNL1        0.1549
     25 C          16.7368   44.9213    5.9267 C.3     1  UNL1        0.0854
     26 C          17.8727   44.2297    6.6626 C.3     1  UNL1        0.0091
     27 C          17.5127   44.0982    8.1287 C.3     1  UNL1        0.0005
     28 C          18.1073   42.8469    6.0874 C.3     1  UNL1        0.0005
@<TRIPOS>BOND
     1    19    20    1
     2     7    20    1
     3     7    11   ar
     4     8    12    1
     5    13    18    1
     6    13    14   ar
     7    15    16   ar
     8    17    12   ar
     9     2     3   ar
    10     4    23    1
    11     4     5   ar
    12    25    21    1
    13    25    26    1
    14    26    27    1
    15    26    28    1
    16     6     1   ar
    17    10     9   ar
    18    10     8   ar
    19    10     1    1
    20    23    21   am
    21     7     9   ar
    22     8    11   ar
    23    12    13   ar
    24    14    15   ar
    25    16    17   ar
    26     1     2   ar
    27     3     4   ar
    28    21    22    2
    29     5     6   ar
    30    23    24    1
@<TRIPOS>MOLECULE
MolPort-006-503-785 ChemDiv-V002-9449 MCULE-3434241118 PubChem-8090333 ZINC000006833694 ZINC06833694
 28 30 0 0 0
SMALL
GASTEIGER

@<TRIPOS>ATOM
      1 C           5.1174   41.3869   10.3047 C.ar    1  UNL1        0.0847
      2 C           5.0681   42.2544   11.4072 C.ar    1  UNL1        0.0205
      3 C           4.0106   42.1863   12.3152 C.ar    1  UNL1        0.0162
      4 C           2.9774   41.2541   12.1329 C.ar    1  UNL1        0.0504
      5 C           3.0186   40.3929   11.0314 C.ar    1  UNL1        0.0162
      6 C           4.0745   40.4646   10.1199 C.ar    1  UNL1        0.0205
      7 C           8.0581   41.1797    8.3890 C.ar    1  UNL1        0.3384
      8 C           6.4017   42.4665    8.4096 C.ar    1  UNL1        0.1706
      9 N           7.2316   40.7009    9.3345 N.ar    1  UNL1       -0.1077
     10 N           6.1878   41.5119    9.3485 N.ar    1  UNL1       -0.2080
     11 N           7.5830   42.2890    7.7838 N.ar    1  UNL1       -0.1738
     12 C           5.4765   43.5566    8.0507 C.ar    1  UNL1        0.0634
     13 C           5.8312   44.4992    7.0768 C.ar    1  UNL1        0.1430
     14 C           4.9461   45.5291    6.7409 C.ar    1  UNL1        0.0297
     15 C           3.6957   45.6099    7.3577 C.ar    1  UNL1        0.0023
     16 C           3.3262   44.6564    8.3088 C.ar    1  UNL1        0.0002
     17 C           4.2120   43.6308    8.6510 C.ar    1  UNL1        0.0053
     18 F           7.0406   44.4399    6.4663 F       1  UNL1       -0.2041
     19 C          10.3726   41.3442    7.5866 C.3     1  UNL1        0.2559
     20 O           9.2803   40.5848    8.0794 O.3     1  UNL1       -0.4416
     21 C           0.9157   42.1421   13.3575 C.2     1  UNL1        0.2261
     22 O           0.8553   43.2071   12.6865 O.2     1  UNL1       -0.2748
     23 N           1.8922   41.1355   13.0623 N.am    1  UNL1       -0.2839
     24 H           1.8099   40.2807   13.5437 H       1  UNL1        0.1549
     25 C          -0.0430   41.9308   14.4812 C.3     1  UNL1        0.0854
     26 C          -1.1446   40.9683   14.0687 C.3     1  UNL1        0.0091
     27 C          -1.8333   40.4345   15.3085 C.3     1  UNL1        0.0005
     28 C          -2.1677   41.6787   13.2047 C.3     1  UNL1        0.0005
@<TRIPOS>BOND
     1    19    20    1
     2     7    20    1
     3     7    11   ar
     4     8    12    1
     5    13    18    1
     6    13    14   ar
     7    15    16   ar
     8    17    12   ar
     9     2     3   ar
    10     4    23    1
    11     4     5   ar
    12    25    21    1
    13    25    26    1
    14    26    27    1
    15    26    28    1
    16     6     1   ar
    17    10     9   ar
    18    10     8   ar
    19    10     1    1
    20    23    21   am
    21     7     9   ar
    22     8    11   ar
    23    12    13   ar
    24    14    15   ar
    25    16    17   ar
    26     1     2   ar
    27     3     4   ar
    28    21    22    2
    29     5     6   ar
    30    23    24    1
@<TRIPOS>MOLECULE
MolPort-006-503-785 ChemDiv-V002-9449 MCULE-3434241118 PubChem-8090333 ZINC000006833694 ZINC06833694
 28 30 0 0 0
SMALL
GASTEIGER

@<TRIPOS>ATOM
      1 C          12.0412   41.1122    6.4821 C.ar    1  UNL1        0.0847
      2 C          12.3924   42.2710    5.7721 C.ar    1  UNL1        0.0205
      3 C          13.5837   42.9408    6.0545 C.ar    1  UNL1        0.0162
      4 C          14.4427   42.4686    7.0589 C.ar    1  UNL1        0.0504
      5 C          14.0928   41.3185    7.7742 C.ar    1  UNL1        0.0162
      6 C          12.8981   40.6511    7.4949 C.ar    1  UNL1        0.0205
      7 C           9.2683   39.3931    5.1721 C.ar    1  UNL1        0.3384
      8 C           9.6065   40.5515    6.8878 C.ar    1  UNL1        0.1706
      9 N          10.5668   39.7376    5.1336 N.ar    1  UNL1       -0.1077
     10 N          10.7805   40.4685    6.2142 N.ar    1  UNL1       -0.2080
     11 N           8.6228   39.8837    6.2515 N.ar    1  UNL1       -0.1738
     12 C           9.3885   41.2365    8.1748 C.ar    1  UNL1        0.0634
     13 C           9.8068   40.6465    9.3747 C.ar    1  UNL1        0.1430
     14 C           9.5979   41.3046   10.5913 C.ar    1  UNL1        0.0297
     15 C           8.9921   42.5627   10.6143 C.ar    1  UNL1        0.0023
     16 C           8.5987   43.1675    9.4186 C.ar    1  UNL1        0.0002
     17 C           8.8000   42.5084    8.2027 C.ar    1  UNL1        0.0053
     18 F          10.3961   39.4251    9.3751 F       1  UNL1       -0.2041
     19 C           9.3606   38.2176    3.0186 C.3     1  UNL1        0.2559
     20 O           8.6622   38.6131    4.1884 O.3     1  UNL1       -0.4416
     21 C          16.4911   43.8671    6.4368 C.2     1  UNL1        0.2261
     22 O          16.0703   44.1477    5.2825 O.2     1  UNL1       -0.2748
     23 N          15.6886   43.1136    7.3544 N.am    1  UNL1       -0.2839
     24 H          16.0250   43.0309    8.2759 H       1  UNL1        0.1549
     25 C          17.8504   44.3232    6.8502 C.3     1  UNL1        0.0854
     26 C          18.2740   43.6375    8.1388 C.3     1  UNL1        0.0091
     27 C          17.3832   44.1061    9.2715 C.3     1  UNL1        0.0005
     28 C          18.1452   42.1333    8.0013 C.3     1  UNL1        0.0005
@<TRIPOS>BOND
     1    19    20    1
     2     7    20    1
     3     7    11   ar
     4     8    12    1
     5    13    18    1
     6    13    14   ar
     7    15    16   ar
     8    17    12   ar
     9     2     3   ar
    10     4    23    1
    11     4     5   ar
    12    25    21    1
    13    25    26    1
    14    26    27    1
    15    26    28    1
    16     6     1   ar
    17    10     9   ar
    18    10     8   ar
    19    10     1    1
    20    23    21   am
    21     7     9   ar
    22     8    11   ar
    23    12    13   ar
    24    14    15   ar
    25    16    17   ar
    26     1     2   ar
    27     3     4   ar
    28    21    22    2
    29     5     6   ar
    30    23    24    1
@<TRIPOS>MOLECULE
MolPort-006-503-785 ChemDiv-V002-9449 MCULE-3434241118 PubChem-8090333 ZINC000006833694 ZINC06833694
 28 30 0 0 0
SMALL
GASTEIGER

@<TRIPOS>ATOM
      1 C          19.3962   39.1598    5.2510 C.ar    1  UNL1        0.0847
      2 C          19.5848   37.8367    5.6800 C.ar    1  UNL1        0.0205
      3 C          19.6494   36.7944    4.7542 C.ar    1  UNL1        0.0162
      4 C          19.5180   37.0552    3.3816 C.ar    1  UNL1        0.0504
      5 C          19.3222   38.3714    2.9502 C.ar    1  UNL1        0.0162
      6 C          19.2526   39.4138    3.8772 C.ar    1  UNL1        0.0205
      7 C          19.2719   42.1704    7.0626 C.ar    1  UNL1        0.3384
      8 C          19.2223   40.1380    7.5790 C.ar    1  UNL1        0.1706
      9 N          19.3060   41.4945    5.9014 N.ar    1  UNL1       -0.1077
     10 N          19.2755   40.2135    6.2262 N.ar    1  UNL1       -0.2080
     11 N          19.2235   41.3629    8.1433 N.ar    1  UNL1       -0.1738
     12 C          19.1322   38.9028    8.3786 C.ar    1  UNL1        0.0634
     13 C          18.5341   38.9172    9.6454 C.ar    1  UNL1        0.1430
     14 C          18.4509   37.7399   10.3964 C.ar    1  UNL1        0.0297
     15 C          18.9429   36.5400    9.8781 C.ar    1  UNL1        0.0023
     16 C          19.5148   36.5148    8.6043 C.ar    1  UNL1        0.0002
     17 C          19.6053   37.6914    7.8554 C.ar    1  UNL1        0.0053
     18 F          18.0509   40.0716   10.1679 F       1  UNL1       -0.2041
     19 C          18.2803   44.2878    7.8115 C.3     1  UNL1        0.2559
     20 O          19.2910   43.5628    7.1293 O.3     1  UNL1       -0.4416
     21 C          18.5504   35.5506    1.5544 C.2     1  UNL1        0.2261
     22 O          17.4425   36.1496    1.5117 O.2     1  UNL1       -0.2748
     23 N          19.6102   36.0133    2.4009 N.am    1  UNL1       -0.2839
     24 H          20.4852   35.5738    2.2993 H       1  UNL1        0.1549
     25 C          18.7574   34.3359    0.7127 C.3     1  UNL1        0.0854
     26 C          17.9463   34.4307   -0.5691 C.3     1  UNL1        0.0091
     27 C          16.7065   33.5686   -0.4420 C.3     1  UNL1        0.0005
     28 C          17.5246   35.8651   -0.8201 C.3     1  UNL1        0.0005
@<TRIPOS>BOND
     1    19    20    1
     2     7    20    1
     3     7    11   ar
     4     8    12    1
     5    13    18    1
     6    13    14   ar
     7    15    16   ar
     8    17    12   ar
     9     2     3   ar
    10     4    23    1
    11     4     5   ar
    12    25    21    1
    13    25    26    1
    14    26    27    1
    15    26    28    1
    16     6     1   ar
    17    10     9   ar
    18    10     8   ar
    19    10     1    1
    20    23    21   am
    21     7     9   ar
    22     8    11   ar
    23    12    13   ar
    24    14    15   ar
    25    16    17   ar
    26     1     2   ar
    27     3     4   ar
    28    21    22    2
    29     5     6   ar
    30    23    24    1
@<TRIPOS>MOLECULE
MolPort-006-503-785 ChemDiv-V002-9449 MCULE-3434241118 PubChem-8090333 ZINC000006833694 ZINC06833694
 28 30 0 0 0
SMALL
GASTEIGER

@<TRIPOS>ATOM
      1 C          10.3205   39.8671    9.4931 C.ar    1  UNL1        0.0847
      2 C          10.3043   38.5139    9.1204 C.ar    1  UNL1        0.0205
      3 C           9.8829   38.1356    7.8450 C.ar    1  UNL1        0.0162
      4 C           9.4613   39.1036    6.9205 C.ar    1  UNL1        0.0504
      5 C           9.4685   40.4527    7.2903 C.ar    1  UNL1        0.0162
      6 C           9.8855   40.8308    8.5686 C.ar    1  UNL1        0.0205
      7 C          10.5767   41.0367   12.7987 C.ar    1  UNL1        0.3384
      8 C          11.9349   40.2572   11.4031 C.ar    1  UNL1        0.1706
      9 N           9.8493   40.7221   11.7132 N.ar    1  UNL1       -0.1077
     10 N          10.7048   40.2314   10.8329 N.ar    1  UNL1       -0.2080
     11 N          11.8912   40.7675   12.6506 N.ar    1  UNL1       -0.1738
     12 C          13.1853   39.7654   10.7968 C.ar    1  UNL1        0.0634
     13 C          13.6166   38.4516   11.0220 C.ar    1  UNL1        0.1430
     14 C          14.8034   37.9926   10.4409 C.ar    1  UNL1        0.0297
     15 C          15.5524   38.8338    9.6152 C.ar    1  UNL1        0.0023
     16 C          15.1122   40.1353    9.3650 C.ar    1  UNL1        0.0002
     17 C          13.9305   40.5981    9.9504 C.ar    1  UNL1        0.0053
     18 F          12.9050   37.6185   11.8212 F       1  UNL1       -0.2041
     19 C           9.4576   40.7755   14.9682 C.3     1  UNL1        0.2559
     20 O          10.0184   41.5892   13.9504 O.3     1  UNL1       -0.4416
     21 C           9.4778   39.3875    4.3793 C.2     1  UNL1        0.2261
     22 O          10.3959   40.2508    4.3838 O.2     1  UNL1       -0.2748
     23 N           9.0514   38.7538    5.5919 N.am    1  UNL1       -0.2839
     24 H           8.4163   38.0067    5.5042 H       1  UNL1        0.1549
     25 C           8.8214   39.0254    3.0891 C.3     1  UNL1        0.0854
     26 C           9.5301   37.8465    2.4426 C.3     1  UNL1        0.0091
     27 C          10.4831   38.3563    1.3804 C.3     1  UNL1        0.0005
     28 C          10.3185   37.0728    3.4808 C.3     1  UNL1        0.0005
@<TRIPOS>BOND
     1    19    20    1
     2     7    20    1
     3     7    11   ar
     4     8    12    1
     5    13    18    1
     6    13    14   ar
     7    15    16   ar
     8    17    12   ar
     9     2     3   ar
    10     4    23    1
    11     4     5   ar
    12    25    21    1
    13    25    26    1
    14    26    27    1
    15    26    28    1
    16     6     1   ar
    17    10     9   ar
    18    10     8   ar
    19    10     1    1
    20    23    21   am
    21     7     9   ar
    22     8    11   ar
    23    12    13   ar
    24    14    15   ar
    25    16    17   ar
    26     1     2   ar
    27     3     4   ar
    28    21    22    2
    29     5     6   ar
    30    23    24    1
@<TRIPOS>MOLECULE
MolPort-006-503-785 ChemDiv-V002-9449 MCULE-3434241118 PubChem-8090333 ZINC000006833694 ZINC06833694
 28 30 0 0 0
SMALL
GASTEIGER

@<TRIPOS>ATOM
      1 C          13.4657   40.3097    9.2270 C.ar    1  UNL1        0.0847
      2 C          12.8435   39.5469    8.2263 C.ar    1  UNL1        0.0205
      3 C          11.4517   39.4891    8.1422 C.ar    1  UNL1        0.0162
      4 C          10.6554   40.1870    9.0632 C.ar    1  UNL1        0.0504
      5 C          11.2712   40.9422   10.0669 C.ar    1  UNL1        0.0162
      6 C          12.6642   40.9959   10.1540 C.ar    1  UNL1        0.0205
      7 C          16.8551   39.8279   10.0270 C.ar    1  UNL1        0.3384
      8 C          15.8081   41.1673    8.7982 C.ar    1  UNL1        0.1706
      9 N          15.5632   39.4659   10.1048 N.ar    1  UNL1       -0.1077
     10 N          14.9026   40.3102    9.3312 N.ar    1  UNL1       -0.2080
     11 N          17.0584   40.8930    9.2228 N.ar    1  UNL1       -0.1738
     12 C          15.5216   42.2511    7.8410 C.ar    1  UNL1        0.0634
     13 C          16.3522   43.3773    7.7718 C.ar    1  UNL1        0.1430
     14 C          16.0740   44.4001    6.8589 C.ar    1  UNL1        0.0297
     15 C          14.9807   44.2937    5.9964 C.ar    1  UNL1        0.0023
     16 C          14.1661   43.1603    6.0422 C.ar    1  UNL1        0.0002
     17 C          14.4382   42.1406    6.9585 C.ar    1  UNL1        0.0053
     18 F          17.4183   43.5012    8.6007 F       1  UNL1       -0.2041
     19 C          18.6251   38.1285   10.1106 C.3     1  UNL1        0.2559
     20 O          17.8700   39.1657   10.7161 O.3     1  UNL1       -0.4416
     21 C           8.3918   41.2385    8.5073 C.2     1  UNL1        0.2261
     22 O           8.8902   42.2583    7.9597 O.2     1  UNL1       -0.2748
     23 N           9.2237   40.1752    8.9879 N.am    1  UNL1       -0.2839
     24 H           8.7685   39.3583    9.2958 H       1  UNL1        0.1549
     25 C           6.9108   41.1420    8.6617 C.3     1  UNL1        0.0854
     26 C           6.4172   42.1345    9.7015 C.3     1  UNL1        0.0091
     27 C           5.1386   42.7817    9.2087 C.3     1  UNL1        0.0005
     28 C           6.1370   41.4272   11.0127 C.3     1  UNL1        0.0005
@<TRIPOS>BOND
     1    19    20    1
     2     7    20    1
     3     7    11   ar
     4     8    12    1
     5    13    18    1
     6    13    14   ar
     7    15    16   ar
     8    17    12   ar
     9     2     3   ar
    10     4    23    1
    11     4     5   ar
    12    25    21    1
    13    25    26    1
    14    26    27    1
    15    26    28    1
    16     6     1   ar
    17    10     9   ar
    18    10     8   ar
    19    10     1    1
    20    23    21   am
    21     7     9   ar
    22     8    11   ar
    23    12    13   ar
    24    14    15   ar
    25    16    17   ar
    26     1     2   ar
    27     3     4   ar
    28    21    22    2
    29     5     6   ar
    30    23    24    1
@<TRIPOS>MOLECULE
MolPort-006-503-785 ChemDiv-V002-9449 MCULE-3434241118 PubChem-8090333 ZINC000006833694 ZINC06833694
 28 30 0 0 0
SMALL
GASTEIGER

@<TRIPOS>ATOM
      1 C          11.4005   41.4727    7.5878 C.ar    1  UNL1        0.0847
      2 C          11.8233   42.3173    6.5495 C.ar    1  UNL1        0.0205
      3 C          13.1677   42.6714    6.4276 C.ar    1  UNL1        0.0162
      4 C          14.1137   42.1939    7.3477 C.ar    1  UNL1        0.0504
      5 C          13.6954   41.3581    8.3885 C.ar    1  UNL1        0.0162
      6 C          12.3491   41.0078    8.5133 C.ar    1  UNL1        0.0205
      7 C           8.0621   41.0315    8.5985 C.ar    1  UNL1        0.3384
      8 C           9.2133   40.3521    6.9819 C.ar    1  UNL1        0.1706
      9 N           9.2738   41.5937    8.7473 N.ar    1  UNL1       -0.1077
     10 N          10.0000   41.1653    7.7291 N.ar    1  UNL1       -0.2080
     11 N           7.9765   40.2405    7.5079 N.ar    1  UNL1       -0.1738
     12 C           9.5980   39.6836    5.7257 C.ar    1  UNL1        0.0634
     13 C           8.6193   39.2507    4.8214 C.ar    1  UNL1        0.1430
     14 C           8.9935   38.6191    3.6306 C.ar    1  UNL1        0.0297
     15 C          10.3444   38.4373    3.3263 C.ar    1  UNL1        0.0023
     16 C          11.3242   38.8922    4.2113 C.ar    1  UNL1        0.0002
     17 C          10.9523   39.5170    5.4049 C.ar    1  UNL1        0.0053
     18 F           7.3021   39.4163    5.0977 F       1  UNL1       -0.2041
     19 C           7.2422   41.7168   10.8089 C.3     1  UNL1        0.2559
     20 O           7.0123   41.2474    9.4900 O.3     1  UNL1       -0.4416
     21 C          16.0587   43.7355    6.7320 C.2     1  UNL1        0.2261
     22 O          15.3207   44.7226    6.4686 O.2     1  UNL1       -0.2748
     23 N          15.5071   42.5122    7.2349 N.am    1  UNL1       -0.2839
     24 H          16.1462   41.8245    7.5313 H       1  UNL1        0.1549
     25 C          17.5303   43.8433    6.5098 C.3     1  UNL1        0.0854
     26 C          18.2886   43.4828    7.7768 C.3     1  UNL1        0.0091
     27 C          17.5726   44.0741    8.9742 C.3     1  UNL1        0.0005
     28 C          18.3573   41.9771    7.9385 C.3     1  UNL1        0.0005
@<TRIPOS>BOND
     1    19    20    1
     2     7    20    1
     3     7    11   ar
     4     8    12    1
     5    13    18    1
     6    13    14   ar
     7    15    16   ar
     8    17    12   ar
     9     2     3   ar
    10     4    23    1
    11     4     5   ar
    12    25    21    1
    13    25    26    1
    14    26    27    1
    15    26    28    1
    16     6     1   ar
    17    10     9   ar
    18    10     8   ar
    19    10     1    1
    20    23    21   am
    21     7     9   ar
    22     8    11   ar
    23    12    13   ar
    24    14    15   ar
    25    16    17   ar
    26     1     2   ar
    27     3     4   ar
    28    21    22    2
    29     5     6   ar
    30    23    24    1
@<TRIPOS>MOLECULE
MolPort-006-503-785 ChemDiv-V002-9449 MCULE-3434241118 PubChem-8090333 ZINC000006833694 ZINC06833694
 28 30 0 0 0
SMALL
GASTEIGER

@<TRIPOS>ATOM
      1 C           5.1818   41.4182   10.0721 C.ar    1  UNL1        0.0847
      2 C           4.4928   42.6397   10.1296 C.ar    1  UNL1        0.0205
      3 C           3.4982   42.8474   11.0863 C.ar    1  UNL1        0.0162
      4 C           3.1681   41.8335   11.9987 C.ar    1  UNL1        0.0504
      5 C           3.8470   40.6118   11.9399 C.ar    1  UNL1        0.0162
      6 C           4.8389   40.4023   10.9791 C.ar    1  UNL1        0.0205
      7 C           6.9929   40.7509    7.1335 C.ar    1  UNL1        0.3384
      8 C           7.5077   41.0465    9.1454 C.ar    1  UNL1        0.1706
      9 N           5.8413   41.0182    7.7727 N.ar    1  UNL1       -0.1077
     10 N           6.1649   41.2039    9.0409 N.ar    1  UNL1       -0.2080
     11 N           8.0656   40.7530    7.9532 N.ar    1  UNL1       -0.1738
     12 C           8.3094   41.2051   10.3722 C.ar    1  UNL1        0.0634
     13 C           9.7034   41.0701   10.3337 C.ar    1  UNL1        0.1430
     14 C          10.4566   41.2243   11.5024 C.ar    1  UNL1        0.0297
     15 C           9.8256   41.5360   12.7087 C.ar    1  UNL1        0.0023
     16 C           8.4392   41.6992   12.7468 C.ar    1  UNL1        0.0002
     17 C           7.6842   41.5384   11.5817 C.ar    1  UNL1        0.0053
     18 F          10.3361   40.7667    9.1732 F       1  UNL1       -0.2041
     19 C           8.0663   39.6643    5.2113 C.3     1  UNL1        0.2559
     20 O           7.0574   40.4939    5.7648 O.3     1  UNL1       -0.4416
     21 C           0.7836   42.2960   12.7981 C.2     1  UNL1        0.2261
     22 O           0.2830   42.2495   11.6425 O.2     1  UNL1       -0.2748
     23 N           2.1738   42.0231   13.0141 N.am    1  UNL1       -0.2839
     24 H           2.4749   41.9596   13.9493 H       1  UNL1        0.1549
     25 C          -0.0867   42.6472   13.9581 C.3     1  UNL1        0.0854
     26 C          -0.9065   41.4436   14.3934 C.3     1  UNL1        0.0091
     27 C          -1.3783   41.6481   15.8188 C.3     1  UNL1        0.0005
     28 C          -2.1155   41.2774   13.4939 C.3     1  UNL1        0.0005
@<TRIPOS>BOND
     1    19    20    1
     2     7    20    1
     3     7    11   ar
     4     8    12    1
     5    13    18    1
     6    13    14   ar
     7    15    16   ar
     8    17    12   ar
     9     2     3   ar
    10     4    23    1
    11     4     5   ar
    12    25    21    1
    13    25    26    1
    14    26    27    1
    15    26    28    1
    16     6     1   ar
    17    10     9   ar
    18    10     8   ar
    19    10     1    1
    20    23    21   am
    21     7     9   ar
    22     8    11   ar
    23    12    13   ar
    24    14    15   ar
    25    16    17   ar
    26     1     2   ar
    27     3     4   ar
    28    21    22    2
    29     5     6   ar
    30    23    24    1
@<TRIPOS>MOLECULE
MolPort-006-503-785 ChemDiv-V002-9449 MCULE-3434241118 PubChem-8090333 ZINC000006833694 ZINC06833694
 28 30 0 0 0
SMALL
GASTEIGER

@<TRIPOS>ATOM
      1 C          13.0786   39.7419    8.5781 C.ar    1  UNL1        0.0847
      2 C          12.6196   40.5847    7.5537 C.ar    1  UNL1        0.0205
      3 C          13.4001   41.6548    7.1140 C.ar    1  UNL1        0.0162
      4 C          14.6515   41.9073    7.6969 C.ar    1  UNL1        0.0504
      5 C          15.1094   41.0744    8.7233 C.ar    1  UNL1        0.0162
      6 C          14.3259   40.0065    9.1667 C.ar    1  UNL1        0.0205
      7 C          11.6520   36.7792    9.8222 C.ar    1  UNL1        0.3384
      8 C          10.8879   38.5344    8.9646 C.ar    1  UNL1        0.1706
      9 N          12.7140   37.5716    9.5973 N.ar    1  UNL1       -0.1077
     10 N          12.2332   38.6777    9.0560 N.ar    1  UNL1       -0.2080
     11 N          10.4846   37.3376    9.4378 N.ar    1  UNL1       -0.1738
     12 C           9.9380   39.5418    8.4589 C.ar    1  UNL1        0.0634
     13 C           9.2502   39.3311    7.2567 C.ar    1  UNL1        0.1430
     14 C           8.3489   40.2915    6.7853 C.ar    1  UNL1        0.0297
     15 C           8.1131   41.4546    7.5216 C.ar    1  UNL1        0.0023
     16 C           8.7753   41.6565    8.7345 C.ar    1  UNL1        0.0002
     17 C           9.6814   40.7014    9.2035 C.ar    1  UNL1        0.0053
     18 F           9.4650   38.2093    6.5256 F       1  UNL1       -0.2041
     19 C          12.9260   34.7192   10.2233 C.3     1  UNL1        0.2559
     20 O          11.7603   35.5105   10.3897 O.3     1  UNL1       -0.4416
     21 C          15.0950   44.0794    6.4227 C.2     1  UNL1        0.2261
     22 O          13.8842   44.2690    6.1292 O.2     1  UNL1       -0.2748
     23 N          15.4928   42.9784    7.2493 N.am    1  UNL1       -0.2839
     24 H          16.4340   42.9553    7.5373 H       1  UNL1        0.1549
     25 C          16.1303   45.0153    5.8944 C.3     1  UNL1        0.0854
     26 C          17.5207   44.5593    6.3052 C.3     1  UNL1        0.0091
     27 C          17.5454   44.3126    7.8002 C.3     1  UNL1        0.0005
     28 C          17.8864   43.2747    5.5883 C.3     1  UNL1        0.0005
@<TRIPOS>BOND
     1    19    20    1
     2     7    20    1
     3     7    11   ar
     4     8    12    1
     5    13    18    1
     6    13    14   ar
     7    15    16   ar
     8    17    12   ar
     9     2     3   ar
    10     4    23    1
    11     4     5   ar
    12    25    21    1
    13    25    26    1
    14    26    27    1
    15    26    28    1
    16     6     1   ar
    17    10     9   ar
    18    10     8   ar
    19    10     1    1
    20    23    21   am
    21     7     9   ar
    22     8    11   ar
    23    12    13   ar
    24    14    15   ar
    25    16    17   ar
    26     1     2   ar
    27     3     4   ar
    28    21    22    2
    29     5     6   ar
    30    23    24    1
@<TRIPOS>MOLECULE
MolPort-006-503-785 ChemDiv-V002-9449 MCULE-3434241118 PubChem-8090333 ZINC000006833694 ZINC06833694
 28 30 0 0 0
SMALL
GASTEIGER

@<TRIPOS>ATOM
      1 C          11.6343   41.6535    7.0969 C.ar    1  UNL1        0.0847
      2 C          12.0430   42.5309    6.0803 C.ar    1  UNL1        0.0205
      3 C          13.3773   42.9278    5.9815 C.ar    1  UNL1        0.0162
      4 C          14.3269   42.4610    6.9034 C.ar    1  UNL1        0.0504
      5 C          13.9224   41.5926    7.9227 C.ar    1  UNL1        0.0162
      6 C          12.5860   41.1994    8.0245 C.ar    1  UNL1        0.0205
      7 C           8.1276   41.4174    7.0066 C.ar    1  UNL1        0.3384
      8 C           9.6475   40.3845    8.0182 C.ar    1  UNL1        0.1706
      9 N           9.2840   41.9512    6.5776 N.ar    1  UNL1       -0.1077
     10 N          10.2424   41.3012    7.2154 N.ar    1  UNL1       -0.2080
     11 N           8.3038   40.4338    7.9144 N.ar    1  UNL1       -0.1738
     12 C          10.3352   39.4081    8.8822 C.ar    1  UNL1        0.0634
     13 C          10.2579   38.0364    8.6076 C.ar    1  UNL1        0.1430
     14 C          10.9155   37.1169    9.4316 C.ar    1  UNL1        0.0297
     15 C          11.6709   37.5625   10.5185 C.ar    1  UNL1        0.0023
     16 C          11.7740   38.9304   10.7800 C.ar    1  UNL1        0.0002
     17 C          11.1119   39.8502    9.9621 C.ar    1  UNL1        0.0053
     18 F           9.5291   37.5822    7.5581 F       1  UNL1       -0.2041
     19 C           6.5931   43.2258    6.3721 C.3     1  UNL1        0.2559
     20 O           6.8810   41.8488    6.5558 O.3     1  UNL1       -0.4416
     21 C          16.2384   44.0109    6.2087 C.2     1  UNL1        0.2261
     22 O          15.4767   44.9346    5.8154 O.2     1  UNL1       -0.2748
     23 N          15.7111   42.8235    6.8135 N.am    1  UNL1       -0.2839
     24 H          16.3617   42.1966    7.2048 H       1  UNL1        0.1549
     25 C          17.7133   44.1562    6.0351 C.3     1  UNL1        0.0854
     26 C          18.4430   43.7393    7.3016 C.3     1  UNL1        0.0091
     27 C          17.6271   44.1545    8.5092 C.3     1  UNL1        0.0005
     28 C          18.6322   42.2355    7.3290 C.3     1  UNL1        0.0005
@<TRIPOS>BOND
     1    19    20    1
     2     7    20    1
     3     7    11   ar
     4     8    12    1
     5    13    18    1
     6    13    14   ar
     7    15    16   ar
     8    17    12   ar
     9     2     3   ar
    10     4    23    1
    11     4     5   ar
    12    25    21    1
    13    25    26    1
    14    26    27    1
    15    26    28    1
    16     6     1   ar
    17    10     9   ar
    18    10     8   ar
    19    10     1    1
    20    23    21   am
    21     7     9   ar
    22     8    11   ar
    23    12    13   ar
    24    14    15   ar
    25    16    17   ar
    26     1     2   ar
    27     3     4   ar
    28    21    22    2
    29     5     6   ar
    30    23    24    1
