@<TRIPOS>MOLECULE
MolPort-010-903-887 ChemDiv-M535-1289 MCULE-9768535667 PubChem-53146000 ZINC000065165980 ZINC65165980
 28 30 0 0 0
SMALL
GASTEIGER

@<TRIPOS>ATOM
      1 C          11.5662   40.9021    7.1838 C.ar    1  UNL1        0.0670
      2 C          12.5994   40.7309    8.1406 C.ar    1  UNL1        0.0535
      3 C          13.8128   41.4145    7.9640 C.ar    1  UNL1        0.0293
      4 C          14.0239   42.2458    6.8626 C.ar    1  UNL1        0.0515
      5 C          13.0044   42.3988    5.9170 C.ar    1  UNL1        0.0149
      6 C          11.7875   41.7379    6.0811 C.ar    1  UNL1        0.0070
      7 C          13.5845   39.6741   10.1976 C.3     1  UNL1        0.0908
      8 C          13.2178   38.7964   11.3985 C.3     1  UNL1        0.0214
      9 C          13.0373   37.3166   11.0377 C.3     1  UNL1        0.0018
     10 C          12.4455   37.0651    9.6473 C.3     1  UNL1        0.0018
     11 C          11.1020   37.7593    9.4079 C.3     1  UNL1        0.0214
     12 C          11.1410   39.2835    9.5721 C.3     1  UNL1        0.0908
     13 N          12.4620   39.8404    9.2619 N.pl3   1  UNL1       -0.3073
     14 C           7.9140   40.3385    8.3260 C.3     1  UNL1        0.1152
     15 C          10.2206   40.3102    7.3567 C.2     1  UNL1        0.2503
     16 N           9.1631   41.0227    8.0240 N.am    1  UNL1       -0.2743
     17 O          10.0106   39.1417    6.9308 O.2     1  UNL1       -0.2699
     18 C           9.2218   42.4716    8.1915 C.3     1  UNL1        0.0938
     19 C           8.1447   42.9545    9.1567 C.3     1  UNL1        0.0215
     20 C           6.9207   43.8580    7.1798 C.3     1  UNL1        0.0001
     21 C           7.3833   44.1447    8.5958 C.3     1  UNL1        0.0018
     22 C          15.5147   44.2154    6.1712 C.2     1  UNL1        0.2256
     23 N          15.2851   42.9163    6.7358 N.am    1  UNL1       -0.2839
     24 O          14.5691   44.8820    5.6703 O.2     1  UNL1       -0.2748
     25 H          16.0759   42.4352    7.0710 H       1  UNL1        0.1549
     26 C          16.9041   44.7634    6.1287 C.3     1  UNL1        0.0768
     27 C          17.8777   43.6749    5.7144 C.3     1  UNL1        0.0096
     28 C          17.7661   44.0707    7.1688 C.3     1  UNL1        0.0096
@<TRIPOS>BOND
     1    20    21    1
     2    21    19    1
     3    19    18    1
     4    18    16    1
     5    14    16    1
     6    15     1    1
     7     2     3   ar
     8     2    13    1
     9     4    23    1
    10     4     5   ar
    11    26    22    1
    12    26    27    1
    13    27    28    1
    14    28    26    1
    15     6     1   ar
    16     7    13    1
    17     7     8    1
    18     8     9    1
    19     9    10    1
    20    10    11    1
    21    11    12    1
    22    12    13    1
    23    16    15   am
    24    23    22   am
    25    15    17    2
    26     1     2   ar
    27     3     4   ar
    28    22    24    2
    29     5     6   ar
    30    23    25    1
@<TRIPOS>MOLECULE
MolPort-010-903-887 ChemDiv-M535-1289 MCULE-9768535667 PubChem-53146000 ZINC000065165980 ZINC65165980
 28 30 0 0 0
SMALL
GASTEIGER

@<TRIPOS>ATOM
      1 C          11.8651   40.5143    7.5283 C.ar    1  UNL1        0.0670
      2 C          13.0627   40.2273    8.2322 C.ar    1  UNL1        0.0535
      3 C          14.1695   41.0758    8.0698 C.ar    1  UNL1        0.0293
      4 C          14.1162   42.1841    7.2227 C.ar    1  UNL1        0.0515
      5 C          12.9354   42.4523    6.5224 C.ar    1  UNL1        0.0149
      6 C          11.8213   41.6286    6.6796 C.ar    1  UNL1        0.0070
      7 C          12.8882   39.1683   10.5052 C.3     1  UNL1        0.0908
      8 C          12.9560   37.8120   11.2144 C.3     1  UNL1        0.0214
      9 C          14.3838   37.2698   11.3546 C.3     1  UNL1        0.0018
     10 C          15.3163   37.6155   10.1895 C.3     1  UNL1        0.0018
     11 C          14.7932   37.1716    8.8208 C.3     1  UNL1        0.0214
     12 C          13.4270   37.7591    8.4465 C.3     1  UNL1        0.0908
     13 N          13.1963   39.0663    9.0706 N.pl3   1  UNL1       -0.3073
     14 C           8.2771   39.1350    7.0985 C.3     1  UNL1        0.1152
     15 C          10.6212   39.7387    7.7326 C.2     1  UNL1        0.2503
     16 N           9.5468   39.7701    6.7755 N.am    1  UNL1       -0.2743
     17 O          10.4949   39.0576    8.7867 O.2     1  UNL1       -0.2699
     18 C           9.7750   40.2129    5.4034 C.3     1  UNL1        0.0938
     19 C          10.5158   39.1485    4.6013 C.3     1  UNL1        0.0215
     20 C           9.9217   37.1706    3.2022 C.3     1  UNL1        0.0001
     21 C           9.6850   38.6516    3.4292 C.3     1  UNL1        0.0018
     22 C          15.5972   43.8878    6.0046 C.2     1  UNL1        0.2256
     23 N          15.2797   43.0128    7.0967 N.am    1  UNL1       -0.2839
     24 O          14.8512   43.9580    4.9908 O.2     1  UNL1       -0.2748
     25 H          15.9282   42.9777    7.8366 H       1  UNL1        0.1549
     26 C          16.8583   44.6880    6.0465 C.3     1  UNL1        0.0768
     27 C          18.0362   43.8199    5.6422 C.3     1  UNL1        0.0096
     28 C          17.7934   44.1262    7.1022 C.3     1  UNL1        0.0096
@<TRIPOS>BOND
     1    20    21    1
     2    21    19    1
     3    19    18    1
     4    18    16    1
     5    14    16    1
     6    15     1    1
     7     2     3   ar
     8     2    13    1
     9     4    23    1
    10     4     5   ar
    11    26    22    1
    12    26    27    1
    13    27    28    1
    14    28    26    1
    15     6     1   ar
    16     7    13    1
    17     7     8    1
    18     8     9    1
    19     9    10    1
    20    10    11    1
    21    11    12    1
    22    12    13    1
    23    16    15   am
    24    23    22   am
    25    15    17    2
    26     1     2   ar
    27     3     4   ar
    28    22    24    2
    29     5     6   ar
    30    23    25    1
@<TRIPOS>MOLECULE
MolPort-010-903-887 ChemDiv-M535-1289 MCULE-9768535667 PubChem-53146000 ZINC000065165980 ZINC65165980
 28 30 0 0 0
SMALL
GASTEIGER

@<TRIPOS>ATOM
      1 C          10.7727   41.3948    7.1936 C.ar    1  UNL1        0.0670
      2 C          11.3655   41.9907    8.3362 C.ar    1  UNL1        0.0535
      3 C          12.6554   42.5346    8.2301 C.ar    1  UNL1        0.0293
      4 C          13.3660   42.4886    7.0294 C.ar    1  UNL1        0.0515
      5 C          12.7790   41.8875    5.9110 C.ar    1  UNL1        0.0149
      6 C          11.4939   41.3525    5.9929 C.ar    1  UNL1        0.0070
      7 C          10.4546   40.7481   10.3223 C.3     1  UNL1        0.0908
      8 C           9.8684   40.9688   11.7204 C.3     1  UNL1        0.0214
      9 C           8.4219   41.4783   11.6999 C.3     1  UNL1        0.0018
     10 C           8.0894   42.4121   10.5319 C.3     1  UNL1        0.0018
     11 C           9.0045   43.6356   10.4335 C.3     1  UNL1        0.0214
     12 C          10.4934   43.2998   10.2846 C.3     1  UNL1        0.0908
     13 N          10.7067   42.0126    9.6146 N.pl3   1  UNL1       -0.3073
     14 C           7.4825   39.6670    6.1210 C.3     1  UNL1        0.1152
     15 C           9.3764   40.9035    7.1909 C.2     1  UNL1        0.2503
     16 N           8.9014   39.9859    6.1892 N.am    1  UNL1       -0.2743
     17 O           8.5815   41.3250    8.0749 O.2     1  UNL1       -0.2699
     18 C           9.8333   39.1888    5.3974 C.3     1  UNL1        0.0938
     19 C           9.8310   39.6337    3.9389 C.3     1  UNL1        0.0215
     20 C          10.0134   37.1699    3.5933 C.3     1  UNL1        0.0001
     21 C           9.5219   38.4774    3.0015 C.3     1  UNL1        0.0018
     22 C          15.0703   44.2660    6.3110 C.2     1  UNL1        0.2256
     23 N          14.6806   43.0597    6.9833 N.am    1  UNL1       -0.2839
     24 O          14.2407   44.9262    5.6288 O.2     1  UNL1       -0.2748
     25 H          15.3896   42.5734    7.4628 H       1  UNL1        0.1549
     26 C          16.4929   44.7177    6.3771 C.3     1  UNL1        0.0768
     27 C          17.3743   43.7711    5.5823 C.3     1  UNL1        0.0096
     28 C          17.3348   43.6749    7.0902 C.3     1  UNL1        0.0096
@<TRIPOS>BOND
     1    20    21    1
     2    21    19    1
     3    19    18    1
     4    18    16    1
     5    14    16    1
     6    15     1    1
     7     2     3   ar
     8     2    13    1
     9     4    23    1
    10     4     5   ar
    11    26    22    1
    12    26    27    1
    13    27    28    1
    14    28    26    1
    15     6     1   ar
    16     7    13    1
    17     7     8    1
    18     8     9    1
    19     9    10    1
    20    10    11    1
    21    11    12    1
    22    12    13    1
    23    16    15   am
    24    23    22   am
    25    15    17    2
    26     1     2   ar
    27     3     4   ar
    28    22    24    2
    29     5     6   ar
    30    23    25    1
@<TRIPOS>MOLECULE
MolPort-010-903-887 ChemDiv-M535-1289 MCULE-9768535667 PubChem-53146000 ZINC000065165980 ZINC65165980
 28 30 0 0 0
SMALL
GASTEIGER

@<TRIPOS>ATOM
      1 C          13.6843   40.9343    9.3703 C.ar    1  UNL1        0.0670
      2 C          14.8409   41.3431    8.6581 C.ar    1  UNL1        0.0535
      3 C          16.0688   40.7223    8.9373 C.ar    1  UNL1        0.0293
      4 C          16.1733   39.7236    9.9070 C.ar    1  UNL1        0.0515
      5 C          15.0301   39.3356   10.6137 C.ar    1  UNL1        0.0149
      6 C          13.7990   39.9315   10.3425 C.ar    1  UNL1        0.0070
      7 C          14.0217   42.2440    6.4591 C.3     1  UNL1        0.0908
      8 C          13.9901   43.5207    5.6130 C.3     1  UNL1        0.0214
      9 C          15.3355   43.8458    4.9522 C.3     1  UNL1        0.0018
     10 C          16.5647   43.4607    5.7814 C.3     1  UNL1        0.0018
     11 C          16.5864   44.0742    7.1840 C.3     1  UNL1        0.0214
     12 C          15.3730   43.7132    8.0495 C.3     1  UNL1        0.0908
     13 N          14.8062   42.4084    7.6923 N.pl3   1  UNL1       -0.3073
     14 C           9.8835   41.1260    8.6785 C.3     1  UNL1        0.1152
     15 C          12.3351   41.4554    9.0558 C.2     1  UNL1        0.2503
     16 N          11.1627   40.6277    9.1636 N.am    1  UNL1       -0.2743
     17 O          12.2205   42.6467    8.6577 O.2     1  UNL1       -0.2699
     18 C          11.1772   39.4033    9.9581 C.3     1  UNL1        0.0938
     19 C          10.9498   38.1783    9.0791 C.3     1  UNL1        0.0215
     20 C          12.5781   36.4513    9.8466 C.3     1  UNL1        0.0001
     21 C          11.1252   36.8871    9.8622 C.3     1  UNL1        0.0018
     22 C          17.8969   37.8337    9.7138 C.2     1  UNL1        0.2256
     23 N          17.4551   39.1279   10.1487 N.am    1  UNL1       -0.2839
     24 O          17.1225   37.0592    9.0896 O.2     1  UNL1       -0.2748
     25 H          18.0991   39.6625   10.6670 H       1  UNL1        0.1549
     26 C          19.2785   37.3766   10.0522 C.3     1  UNL1        0.0768
     27 C          19.4200   35.8940    9.7585 C.3     1  UNL1        0.0096
     28 C          19.2268   36.3639   11.1819 C.3     1  UNL1        0.0096
@<TRIPOS>BOND
     1    20    21    1
     2    21    19    1
     3    19    18    1
     4    18    16    1
     5    14    16    1
     6    15     1    1
     7     2     3   ar
     8     2    13    1
     9     4    23    1
    10     4     5   ar
    11    26    22    1
    12    26    27    1
    13    27    28    1
    14    28    26    1
    15     6     1   ar
    16     7    13    1
    17     7     8    1
    18     8     9    1
    19     9    10    1
    20    10    11    1
    21    11    12    1
    22    12    13    1
    23    16    15   am
    24    23    22   am
    25    15    17    2
    26     1     2   ar
    27     3     4   ar
    28    22    24    2
    29     5     6   ar
    30    23    25    1
@<TRIPOS>MOLECULE
MolPort-010-903-887 ChemDiv-M535-1289 MCULE-9768535667 PubChem-53146000 ZINC000065165980 ZINC65165980
 28 30 0 0 0
SMALL
GASTEIGER

@<TRIPOS>ATOM
      1 C          11.9139   41.4892    8.7254 C.ar    1  UNL1        0.0670
      2 C          13.0812   40.7029    8.9024 C.ar    1  UNL1        0.0535
      3 C          14.2896   41.1388    8.3360 C.ar    1  UNL1        0.0293
      4 C          14.3596   42.3200    7.5952 C.ar    1  UNL1        0.0515
      5 C          13.2009   43.0826    7.4146 C.ar    1  UNL1        0.0149
      6 C          11.9936   42.6728    7.9795 C.ar    1  UNL1        0.0070
      7 C          13.2663   39.4244   11.0586 C.3     1  UNL1        0.0908
      8 C          13.0761   38.0256   11.6538 C.3     1  UNL1        0.0214
      9 C          14.1945   37.0465   11.2758 C.3     1  UNL1        0.0018
     10 C          14.7769   37.2516    9.8738 C.3     1  UNL1        0.0018
     11 C          13.7340   37.2057    8.7539 C.3     1  UNL1        0.0214
     12 C          12.6130   38.2429    8.8926 C.3     1  UNL1        0.0908
     13 N          13.0571   39.4469    9.6029 N.pl3   1  UNL1       -0.3073
     14 C           8.1308   41.2224    9.4858 C.3     1  UNL1        0.1152
     15 C          10.6302   41.1607    9.3849 C.2     1  UNL1        0.2503
     16 N           9.3671   41.3953    8.7364 N.am    1  UNL1       -0.2743
     17 O          10.6503   40.6896   10.5548 O.2     1  UNL1       -0.2699
     18 C           9.2858   41.5700    7.2895 C.3     1  UNL1        0.0938
     19 C           9.3379   40.2253    6.5725 C.3     1  UNL1        0.0215
     20 C           6.9928   39.4320    6.2659 C.3     1  UNL1        0.0001
     21 C           8.2629   39.2780    7.0808 C.3     1  UNL1        0.0018
     22 C          15.9586   43.9958    6.4933 C.2     1  UNL1        0.2256
     23 N          15.6221   42.7125    7.0399 N.am    1  UNL1       -0.2839
     24 O          15.0979   44.9134    6.4131 O.2     1  UNL1       -0.2748
     25 H          16.3319   42.0303    7.0330 H       1  UNL1        0.1549
     26 C          17.3354   44.2306    5.9625 C.3     1  UNL1        0.0768
     27 C          18.1974   43.0033    6.1973 C.3     1  UNL1        0.0096
     28 C          18.3402   44.2069    7.1003 C.3     1  UNL1        0.0096
@<TRIPOS>BOND
     1    20    21    1
     2    21    19    1
     3    19    18    1
     4    18    16    1
     5    14    16    1
     6    15     1    1
     7     2     3   ar
     8     2    13    1
     9     4    23    1
    10     4     5   ar
    11    26    22    1
    12    26    27    1
    13    27    28    1
    14    28    26    1
    15     6     1   ar
    16     7    13    1
    17     7     8    1
    18     8     9    1
    19     9    10    1
    20    10    11    1
    21    11    12    1
    22    12    13    1
    23    16    15   am
    24    23    22   am
    25    15    17    2
    26     1     2   ar
    27     3     4   ar
    28    22    24    2
    29     5     6   ar
    30    23    25    1
@<TRIPOS>MOLECULE
MolPort-010-903-887 ChemDiv-M535-1289 MCULE-9768535667 PubChem-53146000 ZINC000065165980 ZINC65165980
 28 30 0 0 0
SMALL
GASTEIGER

@<TRIPOS>ATOM
      1 C          10.7652   41.1046    7.5746 C.ar    1  UNL1        0.0670
      2 C          11.3143   41.8913    8.6195 C.ar    1  UNL1        0.0535
      3 C          12.5385   42.5457    8.4095 C.ar    1  UNL1        0.0293
      4 C          13.2272   42.4267    7.2011 C.ar    1  UNL1        0.0515
      5 C          12.6849   41.6385    6.1807 C.ar    1  UNL1        0.0149
      6 C          11.4641   40.9904    6.3654 C.ar    1  UNL1        0.0070
      7 C          10.7637   40.8789   10.8534 C.3     1  UNL1        0.0908
      8 C          10.1510   41.2189   12.2158 C.3     1  UNL1        0.0214
      9 C           8.6224   41.3399   12.1820 C.3     1  UNL1        0.0018
     10 C           8.0550   41.9130   10.8795 C.3     1  UNL1        0.0018
     11 C           8.6285   43.2807   10.4995 C.3     1  UNL1        0.0214
     12 C          10.1527   43.3015   10.3320 C.3     1  UNL1        0.0908
     13 N          10.6811   42.0011    9.9063 N.pl3   1  UNL1       -0.3073
     14 C           6.9298   40.6207    7.7039 C.3     1  UNL1        0.1152
     15 C           9.4278   40.4783    7.6737 C.2     1  UNL1        0.2503
     16 N           8.2239   41.2268    7.4252 N.am    1  UNL1       -0.2743
     17 O           9.3473   39.2658    8.0116 O.2     1  UNL1       -0.2699
     18 C           8.2593   42.4825    6.6818 C.3     1  UNL1        0.0938
     19 C           6.8622   43.0787    6.5488 C.3     1  UNL1        0.0215
     20 C           5.1746   44.5507    7.6479 C.3     1  UNL1        0.0001
     21 C           6.6520   44.2333    7.5152 C.3     1  UNL1        0.0018
     22 C          14.7323   44.2453    6.1976 C.2     1  UNL1        0.2256
     23 N          14.4742   43.1177    7.0467 N.am    1  UNL1       -0.2839
     24 O          13.8354   44.7080    5.4422 O.2     1  UNL1       -0.2748
     25 H          15.2323   42.7836    7.5786 H       1  UNL1        0.1549
     26 C          16.0998   44.8467    6.1696 C.3     1  UNL1        0.0768
     27 C          17.1185   43.7980    5.7608 C.3     1  UNL1        0.0096
     28 C          16.9785   44.1842    7.2154 C.3     1  UNL1        0.0096
@<TRIPOS>BOND
     1    20    21    1
     2    21    19    1
     3    19    18    1
     4    18    16    1
     5    14    16    1
     6    15     1    1
     7     2     3   ar
     8     2    13    1
     9     4    23    1
    10     4     5   ar
    11    26    22    1
    12    26    27    1
    13    27    28    1
    14    28    26    1
    15     6     1   ar
    16     7    13    1
    17     7     8    1
    18     8     9    1
    19     9    10    1
    20    10    11    1
    21    11    12    1
    22    12    13    1
    23    16    15   am
    24    23    22   am
    25    15    17    2
    26     1     2   ar
    27     3     4   ar
    28    22    24    2
    29     5     6   ar
    30    23    25    1
@<TRIPOS>MOLECULE
MolPort-010-903-887 ChemDiv-M535-1289 MCULE-9768535667 PubChem-53146000 ZINC000065165980 ZINC65165980
 28 30 0 0 0
SMALL
GASTEIGER

@<TRIPOS>ATOM
      1 C          10.5913   41.6656    6.8820 C.ar    1  UNL1        0.0670
      2 C          11.2335   41.5241    8.1389 C.ar    1  UNL1        0.0535
      3 C          12.6228   41.7093    8.2198 C.ar    1  UNL1        0.0293
      4 C          13.3811   42.0165    7.0887 C.ar    1  UNL1        0.0515
      5 C          12.7416   42.1414    5.8509 C.ar    1  UNL1        0.0149
      6 C          11.3608   41.9733    5.7521 C.ar    1  UNL1        0.0070
      7 C           9.4385   42.0178    9.8279 C.3     1  UNL1        0.0908
      8 C           8.6960   41.4003   11.0172 C.3     1  UNL1        0.0214
      9 C           9.5338   41.3573   12.3013 C.3     1  UNL1        0.0018
     10 C          11.0317   41.1249   12.0799 C.3     1  UNL1        0.0018
     11 C          11.3539   39.8578   11.2834 C.3     1  UNL1        0.0214
     12 C          10.7167   39.8095    9.8893 C.3     1  UNL1        0.0908
     13 N          10.5137   41.1486    9.3263 N.pl3   1  UNL1       -0.3073
     14 C           7.0218   40.3713    6.1444 C.3     1  UNL1        0.1152
     15 C           9.1202   41.6008    6.7325 C.2     1  UNL1        0.2503
     16 N           8.4438   40.3608    6.4565 N.am    1  UNL1       -0.2743
     17 O           8.4519   42.6667    6.8231 O.2     1  UNL1       -0.2699
     18 C           9.0911   39.0780    6.7134 C.3     1  UNL1        0.0938
     19 C           9.1474   38.2305    5.4469 C.3     1  UNL1        0.0215
     20 C           9.7615   38.1464    3.0306 C.3     1  UNL1        0.0001
     21 C           9.7051   39.0170    4.2716 C.3     1  UNL1        0.0018
     22 C          15.5447   43.3901    6.9784 C.2     1  UNL1        0.2256
     23 N          14.7968   42.1924    7.2340 N.am    1  UNL1       -0.2839
     24 O          14.9800   44.4254    6.5328 O.2     1  UNL1       -0.2748
     25 H          15.3091   41.4098    7.5412 H       1  UNL1        0.1549
     26 C          17.0232   43.3935    7.1934 C.3     1  UNL1        0.0768
     27 C          17.3928   42.3864    8.2674 C.3     1  UNL1        0.0096
     28 C          17.3406   43.8592    8.6030 C.3     1  UNL1        0.0096
@<TRIPOS>BOND
     1    20    21    1
     2    21    19    1
     3    19    18    1
     4    18    16    1
     5    14    16    1
     6    15     1    1
     7     2     3   ar
     8     2    13    1
     9     4    23    1
    10     4     5   ar
    11    26    22    1
    12    26    27    1
    13    27    28    1
    14    28    26    1
    15     6     1   ar
    16     7    13    1
    17     7     8    1
    18     8     9    1
    19     9    10    1
    20    10    11    1
    21    11    12    1
    22    12    13    1
    23    16    15   am
    24    23    22   am
    25    15    17    2
    26     1     2   ar
    27     3     4   ar
    28    22    24    2
    29     5     6   ar
    30    23    25    1
@<TRIPOS>MOLECULE
MolPort-010-903-887 ChemDiv-M535-1289 MCULE-9768535667 PubChem-53146000 ZINC000065165980 ZINC65165980
 28 30 0 0 0
SMALL
GASTEIGER

@<TRIPOS>ATOM
      1 C          11.7704   40.6949    7.0171 C.ar    1  UNL1        0.0670
      2 C          12.7452   40.0939    7.8541 C.ar    1  UNL1        0.0535
      3 C          13.9902   40.7232    8.0121 C.ar    1  UNL1        0.0293
      4 C          14.2885   41.9175    7.3536 C.ar    1  UNL1        0.0515
      5 C          13.3260   42.4965    6.5198 C.ar    1  UNL1        0.0149
      6 C          12.0791   41.8932    6.3596 C.ar    1  UNL1        0.0070
      7 C          11.3808   38.6910    9.4317 C.3     1  UNL1        0.0908
      8 C          11.2125   37.2528    9.9321 C.3     1  UNL1        0.0214
      9 C          12.3152   36.8140   10.9037 C.3     1  UNL1        0.0018
     10 C          13.6971   37.4078   10.6128 C.3     1  UNL1        0.0018
     11 C          14.2053   37.1358    9.1945 C.3     1  UNL1        0.0214
     12 C          13.2870   37.6599    8.0837 C.3     1  UNL1        0.0908
     13 N          12.5172   38.8337    8.5090 N.pl3   1  UNL1       -0.3073
     14 C           8.0077   40.0327    7.6212 C.3     1  UNL1        0.1152
     15 C          10.3970   40.1580    6.8888 C.2     1  UNL1        0.2503
     16 N           9.3007   40.7016    7.6463 N.am    1  UNL1       -0.2743
     17 O          10.1950   39.1821    6.1156 O.2     1  UNL1       -0.2699
     18 C           9.3862   42.0300    8.2452 C.3     1  UNL1        0.0938
     19 C           9.8512   41.9473    9.6950 C.3     1  UNL1        0.0215
     20 C           9.1596   44.2804   10.2435 C.3     1  UNL1        0.0001
     21 C          10.3161   43.2993   10.2117 C.3     1  UNL1        0.0018
     22 C          16.0230   43.7846    7.0615 C.2     1  UNL1        0.2256
     23 N          15.5780   42.5120    7.5532 N.am    1  UNL1       -0.2839
     24 O          15.2798   44.4944    6.3312 O.2     1  UNL1       -0.2748
     25 H          16.2257   41.9930    8.0828 H       1  UNL1        0.1549
     26 C          17.4071   44.2511    7.3761 C.3     1  UNL1        0.0768
     27 C          18.2559   43.0804    7.8379 C.3     1  UNL1        0.0096
     28 C          17.6979   44.0517    8.8526 C.3     1  UNL1        0.0096
@<TRIPOS>BOND
     1    20    21    1
     2    21    19    1
     3    19    18    1
     4    18    16    1
     5    14    16    1
     6    15     1    1
     7     2     3   ar
     8     2    13    1
     9     4    23    1
    10     4     5   ar
    11    26    22    1
    12    26    27    1
    13    27    28    1
    14    28    26    1
    15     6     1   ar
    16     7    13    1
    17     7     8    1
    18     8     9    1
    19     9    10    1
    20    10    11    1
    21    11    12    1
    22    12    13    1
    23    16    15   am
    24    23    22   am
    25    15    17    2
    26     1     2   ar
    27     3     4   ar
    28    22    24    2
    29     5     6   ar
    30    23    25    1
@<TRIPOS>MOLECULE
MolPort-010-903-887 ChemDiv-M535-1289 MCULE-9768535667 PubChem-53146000 ZINC000065165980 ZINC65165980
 28 30 0 0 0
SMALL
GASTEIGER

@<TRIPOS>ATOM
      1 C          12.6023   39.9943    8.0900 C.ar    1  UNL1        0.0670
      2 C          13.8892   39.9105    8.6807 C.ar    1  UNL1        0.0535
      3 C          14.8427   40.8965    8.3814 C.ar    1  UNL1        0.0293
      4 C          14.5521   41.9458    7.5076 C.ar    1  UNL1        0.0515
      5 C          13.2847   42.0136    6.9194 C.ar    1  UNL1        0.0149
      6 C          12.3199   41.0507    7.2136 C.ar    1  UNL1        0.0070
      7 C          14.3913   39.0468   10.9873 C.3     1  UNL1        0.0908
      8 C          14.6676   37.7525   11.7589 C.3     1  UNL1        0.0214
      9 C          16.0753   37.1917   11.5217 C.3     1  UNL1        0.0018
     10 C          16.6245   37.4191   10.1098 C.3     1  UNL1        0.0018
     11 C          15.7245   36.8756    8.9969 C.3     1  UNL1        0.0214
     12 C          14.3070   37.4608    8.9893 C.3     1  UNL1        0.0908
     13 N          14.2657   38.8198    9.5395 N.pl3   1  UNL1       -0.3073
     14 C          10.0419   37.9267   10.1224 C.3     1  UNL1        0.1152
     15 C          11.5070   39.0632    8.4422 C.2     1  UNL1        0.2503
     16 N          10.9937   38.9752    9.7838 N.am    1  UNL1       -0.2743
     17 O          11.0354   38.3116    7.5457 O.2     1  UNL1       -0.2699
     18 C          11.2195   40.0484   10.7471 C.3     1  UNL1        0.0938
     19 C          10.0797   41.0608   10.7150 C.3     1  UNL1        0.0215
     20 C           7.9375   41.5104   11.9115 C.3     1  UNL1        0.0001
     21 C           9.4124   41.1956   12.0743 C.3     1  UNL1        0.0018
     22 C          15.6640   43.7664    6.0834 C.2     1  UNL1        0.2256
     23 N          15.5677   42.9219    7.2395 N.am    1  UNL1       -0.2839
     24 O          14.8358   43.6697    5.1378 O.2     1  UNL1       -0.2748
     25 H          16.2724   43.0231    7.9194 H       1  UNL1        0.1549
     26 C          16.7938   44.7382    5.9749 C.3     1  UNL1        0.0768
     27 C          18.0504   44.0222    5.5137 C.3     1  UNL1        0.0096
     28 C          17.8814   44.3814    6.9721 C.3     1  UNL1        0.0096
@<TRIPOS>BOND
     1    20    21    1
     2    21    19    1
     3    19    18    1
     4    18    16    1
     5    14    16    1
     6    15     1    1
     7     2     3   ar
     8     2    13    1
     9     4    23    1
    10     4     5   ar
    11    26    22    1
    12    26    27    1
    13    27    28    1
    14    28    26    1
    15     6     1   ar
    16     7    13    1
    17     7     8    1
    18     8     9    1
    19     9    10    1
    20    10    11    1
    21    11    12    1
    22    12    13    1
    23    16    15   am
    24    23    22   am
    25    15    17    2
    26     1     2   ar
    27     3     4   ar
    28    22    24    2
    29     5     6   ar
    30    23    25    1
@<TRIPOS>MOLECULE
MolPort-010-903-887 ChemDiv-M535-1289 MCULE-9768535667 PubChem-53146000 ZINC000065165980 ZINC65165980
 28 30 0 0 0
SMALL
GASTEIGER

@<TRIPOS>ATOM
      1 C          10.8355   41.6666    7.2582 C.ar    1  UNL1        0.0670
      2 C          11.4852   42.0306    8.4655 C.ar    1  UNL1        0.0535
      3 C          12.8656   42.2859    8.4472 C.ar    1  UNL1        0.0293
      4 C          13.6084   42.1765    7.2703 C.ar    1  UNL1        0.0515
      5 C          12.9621   41.8044    6.0869 C.ar    1  UNL1        0.0149
      6 C          11.5895   41.5585    6.0820 C.ar    1  UNL1        0.0070
      7 C          10.5803   40.8724   10.5047 C.3     1  UNL1        0.0908
      8 C           9.9362   41.1515   11.8664 C.3     1  UNL1        0.0214
      9 C           8.4646   41.5725   11.7683 C.3     1  UNL1        0.0018
     10 C           8.1190   42.4049   10.5295 C.3     1  UNL1        0.0018
     11 C           8.9661   43.6707   10.3741 C.3     1  UNL1        0.0214
     12 C          10.4758   43.4138   10.2927 C.3     1  UNL1        0.0908
     13 N          10.7839   42.0993    9.7195 N.pl3   1  UNL1       -0.3073
     14 C           7.3449   40.1932    6.4800 C.3     1  UNL1        0.1152
     15 C           9.3682   41.4940    7.1693 C.2     1  UNL1        0.2503
     16 N           8.7796   40.2605    6.7185 N.am    1  UNL1       -0.2743
     17 O           8.6219   42.4651    7.4712 O.2     1  UNL1       -0.2699
     18 C           9.5441   39.0170    6.7228 C.3     1  UNL1        0.0938
     19 C           9.5755   38.3993    8.1166 C.3     1  UNL1        0.0215
     20 C          11.0275   37.2168    9.7647 C.3     1  UNL1        0.0001
     21 C          11.0001   38.1965    8.6069 C.3     1  UNL1        0.0018
     22 C          15.6753   43.6404    6.8645 C.2     1  UNL1        0.2256
     23 N          15.0157   42.4482    7.3148 N.am    1  UNL1       -0.2839
     24 O          15.0276   44.5738    6.3180 O.2     1  UNL1       -0.2748
     25 H          15.5891   41.7434    7.6938 H       1  UNL1        0.1549
     26 C          17.1591   43.7544    6.9971 C.3     1  UNL1        0.0768
     27 C          17.6989   42.5840    7.7993 C.3     1  UNL1        0.0096
     28 C          17.5362   43.9354    8.4564 C.3     1  UNL1        0.0096
@<TRIPOS>BOND
     1    20    21    1
     2    21    19    1
     3    19    18    1
     4    18    16    1
     5    14    16    1
     6    15     1    1
     7     2     3   ar
     8     2    13    1
     9     4    23    1
    10     4     5   ar
    11    26    22    1
    12    26    27    1
    13    27    28    1
    14    28    26    1
    15     6     1   ar
    16     7    13    1
    17     7     8    1
    18     8     9    1
    19     9    10    1
    20    10    11    1
    21    11    12    1
    22    12    13    1
    23    16    15   am
    24    23    22   am
    25    15    17    2
    26     1     2   ar
    27     3     4   ar
    28    22    24    2
    29     5     6   ar
    30    23    25    1
