@<TRIPOS>MOLECULE
MolPort-006-579-735 ChemDiv-V009-7327 MCULE-1583866068 PubChem-46040699 ZINC000037544396 ZINC37544396
 31 34 0 0 0
SMALL
GASTEIGER

@<TRIPOS>ATOM
      1 C          13.7535   40.1075    8.1604 C.3     1  UNL1        0.0971
      2 C          13.1795   39.2862    9.3098 C.3     1  UNL1        0.0435
      3 C          12.7622   40.2295   10.4265 C.3     1  UNL1        0.1015
      4 C          11.8658   41.7126    8.6475 C.2     1  UNL1        0.3112
      5 O          11.1727   42.7094    8.3039 O.2     1  UNL1       -0.2520
      6 N          12.8227   41.1521    7.7292 N.am    1  UNL1       -0.2596
      7 N          11.7039   41.1214    9.9533 N.am    1  UNL1       -0.2430
      8 C          10.5355   41.3350   10.7758 C.ar    1  UNL1        0.0565
      9 C          10.5258   40.9125   12.1156 C.ar    1  UNL1        0.0150
     10 C           9.3953   41.1003   12.9136 C.ar    1  UNL1        0.0026
     11 C           8.2583   41.7095   12.3799 C.ar    1  UNL1        0.0148
     12 C           8.2435   42.1333   11.0439 C.ar    1  UNL1        0.0518
     13 C           9.3803   41.9400   10.2530 C.ar    1  UNL1        0.0296
     14 C           6.8337   42.9417    9.0588 C.2     1  UNL1        0.2555
     15 O           7.6508   42.5351    8.1898 O.2     1  UNL1       -0.2693
     16 N           7.0949   42.7605   10.4580 N.am    1  UNL1       -0.2799
     17 H           6.4139   43.1027   11.0812 H       1  UNL1        0.1552
     18 C           5.5982   43.6094    8.6343 C.ar    1  UNL1        0.0831
     19 C           5.5061   44.6074    7.6767 C.ar    1  UNL1        0.0116
     20 C           4.1905   45.0538    7.4830 C.ar    1  UNL1        0.0076
     21 C           3.2420   44.4163    8.2800 C.ar    1  UNL1        0.0356
     22 S           4.0615   43.2926    9.2265 S.2     1  UNL1       -0.0819
     23 C          13.0203   41.7484    6.4132 C.3     1  UNL1        0.1218
     24 C          16.2725   43.5160    7.2626 C.ar    1  UNL1        0.1385
     25 C          16.1406   44.6900    6.5133 C.ar    1  UNL1        0.0369
     26 C          14.9972   44.9089    5.7391 C.ar    1  UNL1        0.0028
     27 C          13.9776   43.9535    5.7116 C.ar    1  UNL1       -0.0024
     28 C          14.0978   42.7797    6.4621 C.ar    1  UNL1        0.0007
     29 C          15.2446   42.5595    7.2318 C.ar    1  UNL1        0.0343
     30 C          17.9046   42.0353    8.3855 C.3     1  UNL1        0.2525
     31 O          17.4288   43.3246    8.0237 O.3     1  UNL1       -0.4714
@<TRIPOS>BOND
     1    30    31    1
     2    24    31    1
     3    25    26   ar
     4    27    28   ar
     5    23    28    1
     6    23     6    1
     7     1     6    1
     8     1     2    1
     9     2     3    1
    10     3     7    1
    11     4     6   am
    12     9    10   ar
    13    11    12   ar
    14    12    16    1
    15    14    18    1
    16    18    22   ar
    17    19    20   ar
    18    21    22   ar
    19    13     8   ar
    20    29    24   ar
    21     7     4   am
    22     7     8    1
    23    16    14   am
    24    24    25   ar
    25    26    27   ar
    26    28    29   ar
    27     4     5    2
    28     8     9   ar
    29    10    11   ar
    30    12    13   ar
    31    14    15    2
    32    18    19   ar
    33    20    21   ar
    34    16    17    1
@<TRIPOS>MOLECULE
MolPort-006-579-735 ChemDiv-V009-7327 MCULE-1583866068 PubChem-46040699 ZINC000037544396 ZINC37544396
 31 34 0 0 0
SMALL
GASTEIGER

@<TRIPOS>ATOM
      1 C          13.8962   39.3480    9.2980 C.3     1  UNL1        0.0971
      2 C          13.0318   38.6586   10.3481 C.3     1  UNL1        0.0435
      3 C          12.6089   39.6850   11.3866 C.3     1  UNL1        0.1015
      4 C          12.2396   41.2444    9.4893 C.2     1  UNL1        0.3112
      5 O          11.7752   42.3291    9.0424 O.2     1  UNL1       -0.2520
      6 N          13.2207   40.5153    8.7283 N.am    1  UNL1       -0.2596
      7 N          11.7908   40.7207   10.7563 N.am    1  UNL1       -0.2430
      8 C          10.5620   41.1384   11.3910 C.ar    1  UNL1        0.0565
      9 C          10.3138   40.8146   12.7352 C.ar    1  UNL1        0.0150
     10 C           9.1219   41.2003   13.3525 C.ar    1  UNL1        0.0026
     11 C           8.1612   41.9113   12.6311 C.ar    1  UNL1        0.0148
     12 C           8.3851   42.2397   11.2870 C.ar    1  UNL1        0.0518
     13 C           9.5814   41.8483   10.6779 C.ar    1  UNL1        0.0296
     14 C           6.4799   42.4190    9.5782 C.2     1  UNL1        0.2555
     15 O           6.4297   41.1787    9.3609 O.2     1  UNL1       -0.2693
     16 N           7.4225   42.9663   10.5114 N.am    1  UNL1       -0.2799
     17 H           7.4066   43.9432   10.6319 H       1  UNL1        0.1552
     18 C           5.5619   43.3160    8.8675 C.ar    1  UNL1        0.0831
     19 C           5.9207   44.2339    7.8927 C.ar    1  UNL1        0.0116
     20 C           4.8240   44.9516    7.3932 C.ar    1  UNL1        0.0076
     21 C           3.6010   44.6081    7.9655 C.ar    1  UNL1        0.0356
     22 S           3.9031   43.4021    9.0987 S.2     1  UNL1       -0.0819
     23 C          13.7067   41.0381    7.4568 C.3     1  UNL1        0.1218
     24 C          16.2868   43.8077    7.1483 C.ar    1  UNL1        0.1385
     25 C          17.2401   43.3881    8.0823 C.ar    1  UNL1        0.0369
     26 C          17.0480   42.2073    8.8058 C.ar    1  UNL1        0.0028
     27 C          15.8999   41.4382    8.5973 C.ar    1  UNL1       -0.0024
     28 C          14.9443   41.8463    7.6615 C.ar    1  UNL1        0.0007
     29 C          15.1351   43.0306    6.9424 C.ar    1  UNL1        0.0343
     30 C          15.5149   45.5897    5.6166 C.3     1  UNL1        0.2525
     31 O          16.5057   44.9943    6.4434 O.3     1  UNL1       -0.4714
@<TRIPOS>BOND
     1    30    31    1
     2    24    31    1
     3    25    26   ar
     4    27    28   ar
     5    23    28    1
     6    23     6    1
     7     1     6    1
     8     1     2    1
     9     2     3    1
    10     3     7    1
    11     4     6   am
    12     9    10   ar
    13    11    12   ar
    14    12    16    1
    15    14    18    1
    16    18    22   ar
    17    19    20   ar
    18    21    22   ar
    19    13     8   ar
    20    29    24   ar
    21     7     4   am
    22     7     8    1
    23    16    14   am
    24    24    25   ar
    25    26    27   ar
    26    28    29   ar
    27     4     5    2
    28     8     9   ar
    29    10    11   ar
    30    12    13   ar
    31    14    15    2
    32    18    19   ar
    33    20    21   ar
    34    16    17    1
@<TRIPOS>MOLECULE
MolPort-006-579-735 ChemDiv-V009-7327 MCULE-1583866068 PubChem-46040699 ZINC000037544396 ZINC37544396
 31 34 0 0 0
SMALL
GASTEIGER

@<TRIPOS>ATOM
      1 C           6.9091   40.6785    6.1654 C.3     1  UNL1        0.0971
      2 C           7.4063   39.2636    6.4408 C.3     1  UNL1        0.0435
      3 C           8.9039   39.2111    6.1850 C.3     1  UNL1        0.1015
      4 C           9.0318   41.4185    7.3160 C.2     1  UNL1        0.3112
      5 O           9.7183   42.3382    7.8401 O.2     1  UNL1       -0.2520
      6 N           7.6695   41.6725    6.9252 N.am    1  UNL1       -0.2596
      7 N           9.5971   40.1074    7.1099 N.am    1  UNL1       -0.2430
      8 C          10.7729   39.6378    7.8057 C.ar    1  UNL1        0.0565
      9 C          10.7240   38.4534    8.5594 C.ar    1  UNL1        0.0150
     10 C          11.8511   38.0002    9.2483 C.ar    1  UNL1        0.0026
     11 C          13.0406   38.7290    9.1953 C.ar    1  UNL1        0.0148
     12 C          13.1104   39.9169    8.4545 C.ar    1  UNL1        0.0518
     13 C          11.9761   40.3625    7.7689 C.ar    1  UNL1        0.0296
     14 C          14.5217   41.8790    7.5941 C.2     1  UNL1        0.2555
     15 O          13.6021   42.3481    6.8714 O.2     1  UNL1       -0.2693
     16 N          14.3123   40.6950    8.3772 N.am    1  UNL1       -0.2799
     17 H          15.0738   40.3843    8.9183 H       1  UNL1        0.1552
     18 C          15.8243   42.5526    7.6358 C.ar    1  UNL1        0.0831
     19 C          16.9040   42.1778    8.4203 C.ar    1  UNL1        0.0116
     20 C          18.0170   43.0136    8.2466 C.ar    1  UNL1        0.0076
     21 C          17.8255   44.0461    7.3310 C.ar    1  UNL1        0.0356
     22 S          16.2560   43.9045    6.7423 S.2     1  UNL1       -0.0819
     23 C           7.0853   42.9969    7.1018 C.3     1  UNL1        0.1218
     24 C           4.3578   41.6689    9.3865 C.ar    1  UNL1        0.1385
     25 C           3.4999   42.7724    9.4457 C.ar    1  UNL1        0.0369
     26 C           3.8038   43.9417    8.7419 C.ar    1  UNL1        0.0028
     27 C           4.9686   44.0126    7.9731 C.ar    1  UNL1       -0.0024
     28 C           5.8291   42.9125    7.9028 C.ar    1  UNL1        0.0007
     29 C           5.5267   41.7454    8.6118 C.ar    1  UNL1        0.0343
     30 C           4.2840   40.3783   11.4950 C.3     1  UNL1        0.2525
     31 O           4.0284   40.5157   10.1038 O.3     1  UNL1       -0.4714
@<TRIPOS>BOND
     1    30    31    1
     2    24    31    1
     3    25    26   ar
     4    27    28   ar
     5    23    28    1
     6    23     6    1
     7     1     6    1
     8     1     2    1
     9     2     3    1
    10     3     7    1
    11     4     6   am
    12     9    10   ar
    13    11    12   ar
    14    12    16    1
    15    14    18    1
    16    18    22   ar
    17    19    20   ar
    18    21    22   ar
    19    13     8   ar
    20    29    24   ar
    21     7     4   am
    22     7     8    1
    23    16    14   am
    24    24    25   ar
    25    26    27   ar
    26    28    29   ar
    27     4     5    2
    28     8     9   ar
    29    10    11   ar
    30    12    13   ar
    31    14    15    2
    32    18    19   ar
    33    20    21   ar
    34    16    17    1
@<TRIPOS>MOLECULE
MolPort-006-579-735 ChemDiv-V009-7327 MCULE-1583866068 PubChem-46040699 ZINC000037544396 ZINC37544396
 31 34 0 0 0
SMALL
GASTEIGER

@<TRIPOS>ATOM
      1 C           7.0692   41.1531    8.3259 C.3     1  UNL1        0.0971
      2 C           7.8580   40.2548    7.3793 C.3     1  UNL1        0.0435
      3 C           9.2956   40.7456    7.3209 C.3     1  UNL1        0.1015
      4 C           9.1343   41.0751    9.7773 C.2     1  UNL1        0.3112
      5 O           9.6902   41.3020   10.8869 O.2     1  UNL1       -0.2520
      6 N           7.7113   41.2460    9.6383 N.am    1  UNL1       -0.2596
      7 N           9.9111   40.6372    8.6434 N.am    1  UNL1       -0.2430
      8 C          11.2307   40.0622    8.7668 C.ar    1  UNL1        0.0565
      9 C          11.3843   38.7116    9.1216 C.ar    1  UNL1        0.0150
     10 C          12.6561   38.1513    9.2589 C.ar    1  UNL1        0.0026
     11 C          13.7907   38.9364    9.0470 C.ar    1  UNL1        0.0148
     12 C          13.6612   40.2878    8.6983 C.ar    1  UNL1        0.0518
     13 C          12.3833   40.8396    8.5641 C.ar    1  UNL1        0.0296
     14 C          14.9609   42.1030    7.4343 C.2     1  UNL1        0.2555
     15 O          14.0486   42.3016    6.5879 O.2     1  UNL1       -0.2693
     16 N          14.8015   41.1279    8.4748 N.am    1  UNL1       -0.2799
     17 H          15.5541   41.0249    9.1011 H       1  UNL1        0.1552
     18 C          16.2031   42.8795    7.3550 C.ar    1  UNL1        0.0831
     19 C          16.5725   43.7100    6.3084 C.ar    1  UNL1        0.0116
     20 C          17.8180   44.3213    6.5144 C.ar    1  UNL1        0.0076
     21 C          18.4360   43.9805    7.7157 C.ar    1  UNL1        0.0356
     22 S          17.4134   42.9107    8.5155 S.2     1  UNL1       -0.0819
     23 C           6.9100   41.7111   10.7643 C.3     1  UNL1        0.1218
     24 C           3.5778   42.8765    9.3640 C.ar    1  UNL1        0.1385
     25 C           2.7629   41.7814    9.6707 C.ar    1  UNL1        0.0369
     26 C           3.2928   40.6708   10.3344 C.ar    1  UNL1        0.0028
     27 C           4.6424   40.6505   10.6965 C.ar    1  UNL1       -0.0024
     28 C           5.4633   41.7430   10.3997 C.ar    1  UNL1        0.0007
     29 C           4.9333   42.8511    9.7308 C.ar    1  UNL1        0.0343
     30 C           3.7785   44.8194    7.8468 C.3     1  UNL1        0.2525
     31 O           3.0196   43.9702    8.6969 O.3     1  UNL1       -0.4714
@<TRIPOS>BOND
     1    30    31    1
     2    24    31    1
     3    25    26   ar
     4    27    28   ar
     5    23    28    1
     6    23     6    1
     7     1     6    1
     8     1     2    1
     9     2     3    1
    10     3     7    1
    11     4     6   am
    12     9    10   ar
    13    11    12   ar
    14    12    16    1
    15    14    18    1
    16    18    22   ar
    17    19    20   ar
    18    21    22   ar
    19    13     8   ar
    20    29    24   ar
    21     7     4   am
    22     7     8    1
    23    16    14   am
    24    24    25   ar
    25    26    27   ar
    26    28    29   ar
    27     4     5    2
    28     8     9   ar
    29    10    11   ar
    30    12    13   ar
    31    14    15    2
    32    18    19   ar
    33    20    21   ar
    34    16    17    1
@<TRIPOS>MOLECULE
MolPort-006-579-735 ChemDiv-V009-7327 MCULE-1583866068 PubChem-46040699 ZINC000037544396 ZINC37544396
 31 34 0 0 0
SMALL
GASTEIGER

@<TRIPOS>ATOM
      1 C           6.6809   40.8215    6.3485 C.3     1  UNL1        0.0971
      2 C           7.4170   39.4950    6.1950 C.3     1  UNL1        0.0435
      3 C           8.8935   39.7764    5.9679 C.3     1  UNL1        0.1015
      4 C           8.6834   41.5296    7.7144 C.2     1  UNL1        0.3112
      5 O           9.2214   42.3514    8.5063 O.2     1  UNL1       -0.2520
      6 N           7.2864   41.6547    7.3889 N.am    1  UNL1       -0.2596
      7 N           9.4543   40.4569    7.1348 N.am    1  UNL1       -0.2430
      8 C          10.7132   40.0061    7.6820 C.ar    1  UNL1        0.0565
      9 C          10.7675   38.8442    8.4696 C.ar    1  UNL1        0.0150
     10 C          11.9772   38.4097    9.0159 C.ar    1  UNL1        0.0026
     11 C          13.1473   39.1349    8.7844 C.ar    1  UNL1        0.0148
     12 C          13.1154   40.3006    8.0067 C.ar    1  UNL1        0.0518
     13 C          11.8991   40.7276    7.4649 C.ar    1  UNL1        0.0296
     14 C          14.3500   42.4578    7.3710 C.2     1  UNL1        0.2555
     15 O          13.2955   43.1335    7.2313 O.2     1  UNL1       -0.2693
     16 N          14.2945   41.0745    7.7482 N.am    1  UNL1       -0.2799
     17 H          15.1565   40.6076    7.8389 H       1  UNL1        0.1552
     18 C          15.6525   43.0940    7.1452 C.ar    1  UNL1        0.0831
     19 C          16.0083   43.8346    6.0287 C.ar    1  UNL1        0.0116
     20 C          17.3231   44.3188    6.0951 C.ar    1  UNL1        0.0076
     21 C          18.0094   43.9667    7.2553 C.ar    1  UNL1        0.0356
     22 S          16.9598   43.0469    8.1947 S.2     1  UNL1       -0.0819
     23 C           6.4937   42.7455    7.9440 C.3     1  UNL1        0.1218
     24 C           3.7769   42.1468   10.5292 C.ar    1  UNL1        0.1385
     25 C           4.4892   41.4416   11.5051 C.ar    1  UNL1        0.0369
     26 C           5.8482   41.1660   11.3263 C.ar    1  UNL1        0.0028
     27 C           6.5029   41.5965   10.1691 C.ar    1  UNL1       -0.0024
     28 C           5.8007   42.3074    9.1909 C.ar    1  UNL1        0.0007
     29 C           4.4399   42.5776    9.3685 C.ar    1  UNL1        0.0343
     30 C           1.8176   42.3675   12.0225 C.3     1  UNL1        0.2525
     31 O           2.4188   42.4037   10.7353 O.3     1  UNL1       -0.4714
@<TRIPOS>BOND
     1    30    31    1
     2    24    31    1
     3    25    26   ar
     4    27    28   ar
     5    23    28    1
     6    23     6    1
     7     1     6    1
     8     1     2    1
     9     2     3    1
    10     3     7    1
    11     4     6   am
    12     9    10   ar
    13    11    12   ar
    14    12    16    1
    15    14    18    1
    16    18    22   ar
    17    19    20   ar
    18    21    22   ar
    19    13     8   ar
    20    29    24   ar
    21     7     4   am
    22     7     8    1
    23    16    14   am
    24    24    25   ar
    25    26    27   ar
    26    28    29   ar
    27     4     5    2
    28     8     9   ar
    29    10    11   ar
    30    12    13   ar
    31    14    15    2
    32    18    19   ar
    33    20    21   ar
    34    16    17    1
@<TRIPOS>MOLECULE
MolPort-006-579-735 ChemDiv-V009-7327 MCULE-1583866068 PubChem-46040699 ZINC000037544396 ZINC37544396
 31 34 0 0 0
SMALL
GASTEIGER

@<TRIPOS>ATOM
      1 C           7.5235   38.7868    6.3043 C.3     1  UNL1        0.0971
      2 C           8.3362   37.8430    7.1841 C.3     1  UNL1        0.0435
      3 C           9.8115   38.1741    7.0270 C.3     1  UNL1        0.1015
      4 C           9.1371   40.5635    7.0893 C.2     1  UNL1        0.3112
      5 O           9.4468   41.7830    7.1842 O.2     1  UNL1       -0.2520
      6 N           7.8431   40.1884    6.5814 N.am    1  UNL1       -0.2596
      7 N          10.0667   39.5369    7.4929 N.am    1  UNL1       -0.2430
      8 C          11.1920   39.7903    8.3628 C.ar    1  UNL1        0.0565
      9 C          11.2527   39.1951    9.6338 C.ar    1  UNL1        0.0150
     10 C          12.3288   39.4468   10.4877 C.ar    1  UNL1        0.0026
     11 C          13.3558   40.3009   10.0823 C.ar    1  UNL1        0.0148
     12 C          13.3128   40.9106    8.8209 C.ar    1  UNL1        0.0518
     13 C          12.2307   40.6526    7.9736 C.ar    1  UNL1        0.0296
     14 C          15.7621   41.5760    8.4468 C.2     1  UNL1        0.2555
     15 O          16.2263   40.5191    8.9523 O.2     1  UNL1       -0.2693
     16 N          14.3463   41.7957    8.3687 N.am    1  UNL1       -0.2799
     17 H          14.0538   42.6432    7.9620 H       1  UNL1        0.1552
     18 C          16.6817   42.5960    7.9307 C.ar    1  UNL1        0.0831
     19 C          17.8576   43.0070    8.5388 C.ar    1  UNL1        0.0116
     20 C          18.5279   43.9996    7.8088 C.ar    1  UNL1        0.0076
     21 C          17.8911   44.3763    6.6283 C.ar    1  UNL1        0.0356
     22 S          16.4861   43.4593    6.5062 S.2     1  UNL1       -0.0819
     23 C           6.8971   41.2085    6.1449 C.3     1  UNL1        0.1218
     24 C           6.1180   43.8875    8.7216 C.ar    1  UNL1        0.1385
     25 C           5.1491   43.2389    9.4948 C.ar    1  UNL1        0.0369
     26 C           4.7541   41.9344    9.1834 C.ar    1  UNL1        0.0028
     27 C           5.3283   41.2705    8.0959 C.ar    1  UNL1       -0.0024
     28 C           6.3020   41.9083    7.3209 C.ar    1  UNL1        0.0007
     29 C           6.6922   43.2153    7.6302 C.ar    1  UNL1        0.0343
     30 C           7.8420   45.5771    9.2604 C.3     1  UNL1        0.2525
     31 O           6.4892   45.1926    9.0560 O.3     1  UNL1       -0.4714
@<TRIPOS>BOND
     1    30    31    1
     2    24    31    1
     3    25    26   ar
     4    27    28   ar
     5    23    28    1
     6    23     6    1
     7     1     6    1
     8     1     2    1
     9     2     3    1
    10     3     7    1
    11     4     6   am
    12     9    10   ar
    13    11    12   ar
    14    12    16    1
    15    14    18    1
    16    18    22   ar
    17    19    20   ar
    18    21    22   ar
    19    13     8   ar
    20    29    24   ar
    21     7     4   am
    22     7     8    1
    23    16    14   am
    24    24    25   ar
    25    26    27   ar
    26    28    29   ar
    27     4     5    2
    28     8     9   ar
    29    10    11   ar
    30    12    13   ar
    31    14    15    2
    32    18    19   ar
    33    20    21   ar
    34    16    17    1
@<TRIPOS>MOLECULE
MolPort-006-579-735 ChemDiv-V009-7327 MCULE-1583866068 PubChem-46040699 ZINC000037544396 ZINC37544396
 31 34 0 0 0
SMALL
GASTEIGER

@<TRIPOS>ATOM
      1 C          13.9271   39.9113   11.0374 C.3     1  UNL1        0.0971
      2 C          12.5386   39.5055   11.5197 C.3     1  UNL1        0.0435
      3 C          11.4997   40.3203   10.7663 C.3     1  UNL1        0.1015
      4 C          12.8837   39.9473    8.7381 C.2     1  UNL1        0.3112
      5 O          13.0203   40.0007    7.4849 O.2     1  UNL1       -0.2520
      6 N          14.0420   39.8067    9.5817 N.am    1  UNL1       -0.2596
      7 N          11.5733   40.0185    9.3370 N.am    1  UNL1       -0.2430
      8 C          10.3560   39.7605    8.6027 C.ar    1  UNL1        0.0565
      9 C          10.1510   38.5147    7.9869 C.ar    1  UNL1        0.0150
     10 C           8.9846   38.2618    7.2617 C.ar    1  UNL1        0.0026
     11 C           8.0103   39.2541    7.1398 C.ar    1  UNL1        0.0148
     12 C           8.1966   40.5066    7.7407 C.ar    1  UNL1        0.0518
     13 C           9.3683   40.7501    8.4641 C.ar    1  UNL1        0.0296
     14 C           6.3639   42.0362    8.6805 C.2     1  UNL1        0.2555
     15 O           6.4121   41.5421    9.8388 O.2     1  UNL1       -0.2693
     16 N           7.2212   41.5524    7.6366 N.am    1  UNL1       -0.2799
     17 H           7.1302   41.9838    6.7563 H       1  UNL1        0.1552
     18 C           5.4186   43.1213    8.3953 C.ar    1  UNL1        0.0831
     19 C           5.6369   44.1756    7.5222 C.ar    1  UNL1        0.0116
     20 C           4.5497   45.0594    7.4561 C.ar    1  UNL1        0.0076
     21 C           3.4738   44.7120    8.2702 C.ar    1  UNL1        0.0356
     22 S           3.8934   43.2934    9.0711 S.2     1  UNL1       -0.0819
     23 C          15.3780   39.7573    8.9994 C.3     1  UNL1        0.1218
     24 C          15.4311   43.2071    7.4122 C.ar    1  UNL1        0.1385
     25 C          16.6444   43.7051    7.8991 C.ar    1  UNL1        0.0369
     26 C          17.4447   42.9213    8.7357 C.ar    1  UNL1        0.0028
     27 C          17.0352   41.6326    9.0890 C.ar    1  UNL1       -0.0024
     28 C          15.8270   41.1239    8.6023 C.ar    1  UNL1        0.0007
     29 C          15.0248   41.9111    7.7699 C.ar    1  UNL1        0.0343
     30 C          15.2072   45.0395    5.7662 C.3     1  UNL1        0.2525
     31 O          14.6518   44.0160    6.5808 O.3     1  UNL1       -0.4714
@<TRIPOS>BOND
     1    30    31    1
     2    24    31    1
     3    25    26   ar
     4    27    28   ar
     5    23    28    1
     6    23     6    1
     7     1     6    1
     8     1     2    1
     9     2     3    1
    10     3     7    1
    11     4     6   am
    12     9    10   ar
    13    11    12   ar
    14    12    16    1
    15    14    18    1
    16    18    22   ar
    17    19    20   ar
    18    21    22   ar
    19    13     8   ar
    20    29    24   ar
    21     7     4   am
    22     7     8    1
    23    16    14   am
    24    24    25   ar
    25    26    27   ar
    26    28    29   ar
    27     4     5    2
    28     8     9   ar
    29    10    11   ar
    30    12    13   ar
    31    14    15    2
    32    18    19   ar
    33    20    21   ar
    34    16    17    1
@<TRIPOS>MOLECULE
MolPort-006-579-735 ChemDiv-V009-7327 MCULE-1583866068 PubChem-46040699 ZINC000037544396 ZINC37544396
 31 34 0 0 0
SMALL
GASTEIGER

@<TRIPOS>ATOM
      1 C          13.9943   35.8132    9.8363 C.3     1  UNL1        0.0971
      2 C          12.4944   36.0870    9.8620 C.3     1  UNL1        0.0435
      3 C          12.2517   37.4272   10.5372 C.3     1  UNL1        0.1015
      4 C          14.2150   38.2635    9.2668 C.2     1  UNL1        0.3112
      5 O          14.9276   39.2250    8.8671 O.2     1  UNL1       -0.2520
      6 N          14.7321   36.9203    9.2254 N.am    1  UNL1       -0.2596
      7 N          12.8794   38.4954    9.7599 N.am    1  UNL1       -0.2430
      8 C          12.1341   39.7011    9.4800 C.ar    1  UNL1        0.0565
      9 C          12.7989   40.8594    9.0445 C.ar    1  UNL1        0.0150
     10 C          12.0887   42.0340    8.7867 C.ar    1  UNL1        0.0026
     11 C          10.7047   42.0656    8.9657 C.ar    1  UNL1        0.0148
     12 C          10.0216   40.9234    9.4055 C.ar    1  UNL1        0.0518
     13 C          10.7419   39.7525    9.6615 C.ar    1  UNL1        0.0296
     14 C           7.7186   42.0456    9.5425 C.2     1  UNL1        0.2555
     15 O           8.1598   43.1994    9.2936 O.2     1  UNL1       -0.2693
     16 N           8.6015   40.9162    9.6039 N.am    1  UNL1       -0.2799
     17 H           8.1890   40.0448    9.8031 H       1  UNL1        0.1552
     18 C           6.2823   41.8540    9.7726 C.ar    1  UNL1        0.0831
     19 C           5.2755   42.1032    8.8530 C.ar    1  UNL1        0.0116
     20 C           3.9972   41.8257    9.3593 C.ar    1  UNL1        0.0076
     21 C           3.9857   41.3590   10.6720 C.ar    1  UNL1        0.0356
     22 S           5.5843   41.2968   11.1921 S.2     1  UNL1       -0.0819
     23 C          16.0881   36.6653    8.7536 C.3     1  UNL1        0.1218
     24 C          16.3630   32.9471    8.0311 C.ar    1  UNL1        0.1385
     25 C          16.2178   32.9351    6.6397 C.ar    1  UNL1        0.0369
     26 C          16.0363   34.1309    5.9383 C.ar    1  UNL1        0.0028
     27 C          16.0006   35.3468    6.6263 C.ar    1  UNL1       -0.0024
     28 C          16.1510   35.3694    8.0164 C.ar    1  UNL1        0.0007
     29 C          16.3269   34.1719    8.7174 C.ar    1  UNL1        0.0343
     30 C          17.8004   31.3112    9.2037 C.3     1  UNL1        0.2525
     31 O          16.5393   31.7351    8.7041 O.3     1  UNL1       -0.4714
@<TRIPOS>BOND
     1    30    31    1
     2    24    31    1
     3    25    26   ar
     4    27    28   ar
     5    23    28    1
     6    23     6    1
     7     1     6    1
     8     1     2    1
     9     2     3    1
    10     3     7    1
    11     4     6   am
    12     9    10   ar
    13    11    12   ar
    14    12    16    1
    15    14    18    1
    16    18    22   ar
    17    19    20   ar
    18    21    22   ar
    19    13     8   ar
    20    29    24   ar
    21     7     4   am
    22     7     8    1
    23    16    14   am
    24    24    25   ar
    25    26    27   ar
    26    28    29   ar
    27     4     5    2
    28     8     9   ar
    29    10    11   ar
    30    12    13   ar
    31    14    15    2
    32    18    19   ar
    33    20    21   ar
    34    16    17    1
@<TRIPOS>MOLECULE
MolPort-006-579-735 ChemDiv-V009-7327 MCULE-1583866068 PubChem-46040699 ZINC000037544396 ZINC37544396
 31 34 0 0 0
SMALL
GASTEIGER

@<TRIPOS>ATOM
      1 C          13.5884   35.7119   10.0222 C.3     1  UNL1        0.0971
      2 C          12.3038   36.2313   10.6588 C.3     1  UNL1        0.0435
      3 C          12.5147   37.6763   11.0811 C.3     1  UNL1        0.1015
      4 C          13.7105   37.9836    8.9262 C.2     1  UNL1        0.3112
      5 O          14.2259   38.7460    8.0629 O.2     1  UNL1       -0.2520
      6 N          14.0384   36.5816    8.9339 N.am    1  UNL1       -0.2596
      7 N          12.7866   38.5024    9.9050 N.am    1  UNL1       -0.2430
      8 C          12.0961   39.7616    9.7475 C.ar    1  UNL1        0.0565
      9 C          12.7856   40.8941    9.2832 C.ar    1  UNL1        0.0150
     10 C          12.1303   42.1193    9.1430 C.ar    1  UNL1        0.0026
     11 C          10.7775   42.2281    9.4699 C.ar    1  UNL1        0.0148
     12 C          10.0713   41.1127    9.9410 C.ar    1  UNL1        0.0518
     13 C          10.7368   39.8906   10.0785 C.ar    1  UNL1        0.0296
     14 C           7.5761   41.3386    9.3891 C.2     1  UNL1        0.2555
     15 O           7.7613   41.4285    8.1458 O.2     1  UNL1       -0.2693
     16 N           8.6824   41.1841   10.2898 N.am    1  UNL1       -0.2799
     17 H           8.4648   41.1205   11.2478 H       1  UNL1        0.1552
     18 C           6.2108   41.3923    9.9232 C.ar    1  UNL1        0.0831
     19 C           5.8555   41.2299   11.2532 C.ar    1  UNL1        0.0116
     20 C           4.4724   41.3335   11.4620 C.ar    1  UNL1        0.0076
     21 C           3.7315   41.5767   10.3074 C.ar    1  UNL1        0.0356
     22 S           4.8190   41.6606    9.0267 S.2     1  UNL1       -0.0819
     23 C          14.9884   36.0402    7.9692 C.3     1  UNL1        0.1218
     24 C          18.1135   36.6439   10.0411 C.ar    1  UNL1        0.1385
     25 C          18.8031   35.4437    9.8380 C.ar    1  UNL1        0.0369
     26 C          18.2573   34.4441    9.0271 C.ar    1  UNL1        0.0028
     27 C          17.0175   34.6410    8.4129 C.ar    1  UNL1       -0.0024
     28 C          16.3236   35.8398    8.6050 C.ar    1  UNL1        0.0007
     29 C          16.8682   36.8367    9.4210 C.ar    1  UNL1        0.0343
     30 C          19.3044   38.7908   10.3412 C.3     1  UNL1        0.2525
     31 O          18.6836   37.6224   10.8599 O.3     1  UNL1       -0.4714
@<TRIPOS>BOND
     1    30    31    1
     2    24    31    1
     3    25    26   ar
     4    27    28   ar
     5    23    28    1
     6    23     6    1
     7     1     6    1
     8     1     2    1
     9     2     3    1
    10     3     7    1
    11     4     6   am
    12     9    10   ar
    13    11    12   ar
    14    12    16    1
    15    14    18    1
    16    18    22   ar
    17    19    20   ar
    18    21    22   ar
    19    13     8   ar
    20    29    24   ar
    21     7     4   am
    22     7     8    1
    23    16    14   am
    24    24    25   ar
    25    26    27   ar
    26    28    29   ar
    27     4     5    2
    28     8     9   ar
    29    10    11   ar
    30    12    13   ar
    31    14    15    2
    32    18    19   ar
    33    20    21   ar
    34    16    17    1
@<TRIPOS>MOLECULE
MolPort-006-579-735 ChemDiv-V009-7327 MCULE-1583866068 PubChem-46040699 ZINC000037544396 ZINC37544396
 31 34 0 0 0
SMALL
GASTEIGER

@<TRIPOS>ATOM
      1 C          12.0597   41.7914    8.5369 C.3     1  UNL1        0.0971
      2 C          13.1497   41.2880    7.5968 C.3     1  UNL1        0.0435
      3 C          14.4644   41.2271    8.3575 C.3     1  UNL1        0.1015
      4 C          13.1587   40.3077   10.2596 C.2     1  UNL1        0.3112
      5 O          13.1231   39.7440   11.3879 O.2     1  UNL1       -0.2520
      6 N          11.9933   40.9902    9.7604 N.am    1  UNL1       -0.2596
      7 N          14.3572   40.2694    9.4578 N.am    1  UNL1       -0.2430
      8 C          15.4147   39.3074    9.6665 C.ar    1  UNL1        0.0565
      9 C          16.6251   39.7031   10.2597 C.ar    1  UNL1        0.0150
     10 C          17.6588   38.7837   10.4508 C.ar    1  UNL1        0.0026
     11 C          17.4961   37.4574   10.0468 C.ar    1  UNL1        0.0148
     12 C          16.2993   37.0419    9.4472 C.ar    1  UNL1        0.0518
     13 C          15.2705   37.9704    9.2596 C.ar    1  UNL1        0.0296
     14 C          16.3588   35.1531    7.7121 C.2     1  UNL1        0.2555
     15 O          16.8204   35.8819    6.7935 O.2     1  UNL1       -0.2693
     16 N          16.0942   35.6898    9.0162 N.am    1  UNL1       -0.2799
     17 H          15.7341   35.0640    9.6855 H       1  UNL1        0.1552
     18 C          16.0883   33.7361    7.4447 C.ar    1  UNL1        0.0831
     19 C          15.4257   32.8647    8.2950 C.ar    1  UNL1        0.0116
     20 C          15.3169   31.5695    7.7676 C.ar    1  UNL1        0.0076
     21 C          15.8884   31.4104    6.5069 C.ar    1  UNL1        0.0356
     22 S          16.5292   32.9001    6.0594 S.2     1  UNL1       -0.0819
     23 C          10.7788   41.0623   10.5642 C.3     1  UNL1        0.1218
     24 C           8.0118   42.8584    8.6827 C.ar    1  UNL1        0.1385
     25 C           8.1689   44.1637    9.1609 C.ar    1  UNL1        0.0369
     26 C           9.1732   44.4603   10.0873 C.ar    1  UNL1        0.0028
     27 C          10.0277   43.4512   10.5396 C.ar    1  UNL1       -0.0024
     28 C           9.8823   42.1447   10.0626 C.ar    1  UNL1        0.0007
     29 C           8.8737   41.8483    9.1401 C.ar    1  UNL1        0.0343
     30 C           6.8887   43.2774    6.5193 C.3     1  UNL1        0.2525
     31 O           6.9964   42.5928    7.7600 O.3     1  UNL1       -0.4714
@<TRIPOS>BOND
     1    30    31    1
     2    24    31    1
     3    25    26   ar
     4    27    28   ar
     5    23    28    1
     6    23     6    1
     7     1     6    1
     8     1     2    1
     9     2     3    1
    10     3     7    1
    11     4     6   am
    12     9    10   ar
    13    11    12   ar
    14    12    16    1
    15    14    18    1
    16    18    22   ar
    17    19    20   ar
    18    21    22   ar
    19    13     8   ar
    20    29    24   ar
    21     7     4   am
    22     7     8    1
    23    16    14   am
    24    24    25   ar
    25    26    27   ar
    26    28    29   ar
    27     4     5    2
    28     8     9   ar
    29    10    11   ar
    30    12    13   ar
    31    14    15    2
    32    18    19   ar
    33    20    21   ar
    34    16    17    1
