@<TRIPOS>MOLECULE
MolPort-019-839-885 41070600 CSSS03437762688 MCULE-8219256078 PubChem-52095553 ZINC000041070600 ZINC41070600
 31 33 0 0 0
SMALL
GASTEIGER

@<TRIPOS>ATOM
      1 C          11.6248   41.6020    7.4716 C.ar    1  UNL1        0.1608
      2 C          10.8478   42.1023    8.4877 C.ar    1  UNL1        0.1950
      3 C           9.5459   41.9149    8.0606 C.ar    1  UNL1        0.1843
      4 C          11.2089   40.7097    5.1595 C.3     1  UNL1        0.1552
      5 N           9.5522   41.3548    6.8314 N.ar    1  UNL1       -0.1611
      6 N          10.8162   41.1682    6.4813 N.ar    1  UNL1       -0.2332
      7 F          11.2713   42.6711    9.6434 F       1  UNL1       -0.1994
      8 C          13.8196   42.7757    6.9419 C.2     1  UNL1        0.2535
      9 O          13.2616   43.6562    6.2331 O.2     1  UNL1       -0.2697
     10 N          13.0556   41.6648    7.4278 N.am    1  UNL1       -0.2641
     11 H          13.5536   40.8823    7.7578 H       1  UNL1        0.1566
     12 C          15.9164   41.9576    8.1234 C.ar    1  UNL1        0.1430
     13 C          15.2720   42.8478    7.2304 C.ar    1  UNL1        0.0876
     14 C          16.0330   43.8368    6.5873 C.ar    1  UNL1        0.0076
     15 C          17.4043   43.9521    6.8189 C.ar    1  UNL1        0.0003
     16 C          18.0372   43.0767    7.6996 C.ar    1  UNL1        0.0031
     17 C          17.2984   42.0862    8.3471 C.ar    1  UNL1        0.0371
     18 C          15.7762   40.0281    9.6748 C.3     1  UNL1        0.2525
     19 O          15.1851   40.9575    8.7765 O.3     1  UNL1       -0.4713
     20 C           8.3240   42.2860    8.7848 C.2     1  UNL1        0.2714
     21 O           8.0785   43.4988    9.0249 O.2     1  UNL1       -0.2680
     22 N           7.4473   41.2584    9.2612 N.am    1  UNL1       -0.2773
     23 H           7.7928   40.3365    9.2585 H       1  UNL1        0.1553
     24 C           6.1112   41.4545    9.7414 C.ar    1  UNL1        0.0785
     25 C           5.7587   41.2488   11.0913 C.ar    1  UNL1        0.1557
     26 C           4.4446   41.4778   11.5117 C.ar    1  UNL1        0.0605
     27 C           3.4807   41.9180   10.6018 C.ar    1  UNL1        0.1425
     28 C           3.8330   42.1522    9.2711 C.ar    1  UNL1        0.0311
     29 C           5.1448   41.9267    8.8461 C.ar    1  UNL1        0.0193
     30 F           6.6845   40.8907   12.0143 F       1  UNL1       -0.2028
     31 F           2.2090   42.1357   11.0143 F       1  UNL1       -0.2041
@<TRIPOS>BOND
     1    18    19    1
     2    12    19    1
     3    13    14   ar
     4    13     8    1
     5    15    16   ar
     6    17    12   ar
     7     8    10   am
     8     2     7    1
     9     2     3   ar
    10     3    20    1
    11     4     6    1
    12    20    22   am
    13    25    30    1
    14    25    26   ar
    15    27    31    1
    16    27    28   ar
    17    29    24   ar
    18    10     1    1
    19     6     5   ar
    20     6     1   ar
    21    22    24    1
    22    12    13   ar
    23    14    15   ar
    24    16    17   ar
    25     8     9    2
    26     1     2   ar
    27     3     5   ar
    28    20    21    2
    29    24    25   ar
    30    26    27   ar
    31    28    29   ar
    32    10    11    1
    33    22    23    1
@<TRIPOS>MOLECULE
MolPort-019-839-885 41070600 CSSS03437762688 MCULE-8219256078 PubChem-52095553 ZINC000041070600 ZINC41070600
 31 33 0 0 0
SMALL
GASTEIGER

@<TRIPOS>ATOM
      1 C           3.4268   42.0224   10.7091 C.ar    1  UNL1        0.1608
      2 C           3.8526   41.6042    9.4721 C.ar    1  UNL1        0.1950
      3 C           5.2157   41.8375    9.4713 C.ar    1  UNL1        0.1843
      4 C           4.4721   43.1923   12.6722 C.3     1  UNL1        0.1552
      5 N           5.5767   42.3972   10.6464 N.ar    1  UNL1       -0.1611
      6 N           4.4866   42.5060   11.3914 N.ar    1  UNL1       -0.2332
      7 F           3.0945   41.0944    8.4702 F       1  UNL1       -0.1994
      8 C           1.6085   41.8783   12.4834 C.2     1  UNL1        0.2535
      9 O           2.3816   41.3674   13.3380 O.2     1  UNL1       -0.2697
     10 N           2.0592   42.0593   11.1352 N.am    1  UNL1       -0.2641
     11 H           1.3746   42.2220   10.4467 H       1  UNL1        0.1566
     12 C          -0.0916   43.3655   13.6494 C.ar    1  UNL1        0.1430
     13 C           0.2175   42.2414   12.8457 C.ar    1  UNL1        0.0876
     14 C          -0.8294   41.4379   12.3670 C.ar    1  UNL1        0.0076
     15 C          -2.1586   41.7313   12.6745 C.ar    1  UNL1        0.0003
     16 C          -2.4617   42.8368   13.4674 C.ar    1  UNL1        0.0031
     17 C          -1.4352   43.6483   13.9512 C.ar    1  UNL1        0.0371
     18 C           1.5426   43.9930   15.4058 C.3     1  UNL1        0.2525
     19 O           0.9306   44.1888   14.1380 O.3     1  UNL1       -0.4713
     20 C           6.1506   41.5664    8.3723 C.2     1  UNL1        0.2714
     21 O           6.7531   42.5195    7.8089 O.2     1  UNL1       -0.2680
     22 N           6.3276   40.2212    7.9131 N.am    1  UNL1       -0.2773
     23 H           5.6720   39.5528    8.2175 H       1  UNL1        0.1553
     24 C           7.3757   39.7629    7.0494 C.ar    1  UNL1        0.0785
     25 C           7.4619   40.1540    5.6973 C.ar    1  UNL1        0.1557
     26 C           8.5192   39.6959    4.9047 C.ar    1  UNL1        0.0605
     27 C           9.4960   38.8590    5.4489 C.ar    1  UNL1        0.1425
     28 C           9.4309   38.4943    6.7953 C.ar    1  UNL1        0.0311
     29 C           8.3777   38.9505    7.5920 C.ar    1  UNL1        0.0193
     30 F           6.5712   41.0212    5.1568 F       1  UNL1       -0.2028
     31 F          10.5163   38.4164    4.6758 F       1  UNL1       -0.2041
@<TRIPOS>BOND
     1    18    19    1
     2    12    19    1
     3    13    14   ar
     4    13     8    1
     5    15    16   ar
     6    17    12   ar
     7     8    10   am
     8     2     7    1
     9     2     3   ar
    10     3    20    1
    11     4     6    1
    12    20    22   am
    13    25    30    1
    14    25    26   ar
    15    27    31    1
    16    27    28   ar
    17    29    24   ar
    18    10     1    1
    19     6     5   ar
    20     6     1   ar
    21    22    24    1
    22    12    13   ar
    23    14    15   ar
    24    16    17   ar
    25     8     9    2
    26     1     2   ar
    27     3     5   ar
    28    20    21    2
    29    24    25   ar
    30    26    27   ar
    31    28    29   ar
    32    10    11    1
    33    22    23    1
@<TRIPOS>MOLECULE
MolPort-019-839-885 41070600 CSSS03437762688 MCULE-8219256078 PubChem-52095553 ZINC000041070600 ZINC41070600
 31 33 0 0 0
SMALL
GASTEIGER

@<TRIPOS>ATOM
      1 C           4.0171   41.7145   11.2964 C.ar    1  UNL1        0.1608
      2 C           3.2748   42.7218   11.8627 C.ar    1  UNL1        0.1950
      3 C           2.1845   42.0828   12.4245 C.ar    1  UNL1        0.1843
      4 C           3.7195   39.2461   10.9307 C.3     1  UNL1        0.1552
      5 N           2.2629   40.7575   12.1758 N.ar    1  UNL1       -0.1611
      6 N           3.3766   40.5421   11.4914 N.ar    1  UNL1       -0.2332
      7 F           3.5472   44.0500   11.8522 F       1  UNL1       -0.1994
      8 C           6.5358   41.6190   10.9462 C.2     1  UNL1        0.2535
      9 O           6.7732   41.4532   12.1731 O.2     1  UNL1       -0.2697
     10 N           5.2010   41.9105   10.5134 N.am    1  UNL1       -0.2641
     11 H           5.0886   42.2745    9.6056 H       1  UNL1        0.1566
     12 C           7.4577   41.9638    8.6025 C.ar    1  UNL1        0.1430
     13 C           7.6343   41.5721    9.9518 C.ar    1  UNL1        0.0876
     14 C           8.8971   41.1246   10.3713 C.ar    1  UNL1        0.0076
     15 C           9.9690   41.0601    9.4801 C.ar    1  UNL1        0.0003
     16 C           9.7936   41.4439    8.1518 C.ar    1  UNL1        0.0031
     17 C           8.5467   41.8929    7.7162 C.ar    1  UNL1        0.0371
     18 C           6.0092   43.7197    7.6188 C.3     1  UNL1        0.2525
     19 O           6.2111   42.4191    8.1551 O.3     1  UNL1       -0.4713
     20 C           1.0777   42.7151   13.1527 C.2     1  UNL1        0.2714
     21 O          -0.1049   42.5870   12.7354 O.2     1  UNL1       -0.2680
     22 N           1.3596   43.5198   14.3036 N.am    1  UNL1       -0.2773
     23 H           2.2974   43.7811   14.4501 H       1  UNL1        0.1553
     24 C           0.3960   43.9780   15.2607 C.ar    1  UNL1        0.0785
     25 C           0.3680   43.5019   16.5878 C.ar    1  UNL1        0.1557
     26 C          -0.5792   44.0005   17.4879 C.ar    1  UNL1        0.0605
     27 C          -1.4928   44.9753   17.0807 C.ar    1  UNL1        0.1425
     28 C          -1.4484   45.4715   15.7762 C.ar    1  UNL1        0.0311
     29 C          -0.5031   44.9780   14.8733 C.ar    1  UNL1        0.0193
     30 F           1.2846   42.6092   17.0352 F       1  UNL1       -0.2028
     31 F          -2.4094   45.4527   17.9563 F       1  UNL1       -0.2041
@<TRIPOS>BOND
     1    18    19    1
     2    12    19    1
     3    13    14   ar
     4    13     8    1
     5    15    16   ar
     6    17    12   ar
     7     8    10   am
     8     2     7    1
     9     2     3   ar
    10     3    20    1
    11     4     6    1
    12    20    22   am
    13    25    30    1
    14    25    26   ar
    15    27    31    1
    16    27    28   ar
    17    29    24   ar
    18    10     1    1
    19     6     5   ar
    20     6     1   ar
    21    22    24    1
    22    12    13   ar
    23    14    15   ar
    24    16    17   ar
    25     8     9    2
    26     1     2   ar
    27     3     5   ar
    28    20    21    2
    29    24    25   ar
    30    26    27   ar
    31    28    29   ar
    32    10    11    1
    33    22    23    1
@<TRIPOS>MOLECULE
MolPort-019-839-885 41070600 CSSS03437762688 MCULE-8219256078 PubChem-52095553 ZINC000041070600 ZINC41070600
 31 33 0 0 0
SMALL
GASTEIGER

@<TRIPOS>ATOM
      1 C          11.6295   41.3834    7.4800 C.ar    1  UNL1        0.1608
      2 C          10.9192   41.8481    8.5598 C.ar    1  UNL1        0.1950
      3 C           9.5924   41.6973    8.2000 C.ar    1  UNL1        0.1843
      4 C          11.0693   40.6009    5.1585 C.3     1  UNL1        0.1552
      5 N           9.5203   41.1926    6.9492 N.ar    1  UNL1       -0.1611
      6 N          10.7594   41.0050    6.5194 N.ar    1  UNL1       -0.2332
      7 F          11.4164   42.3591    9.7131 F       1  UNL1       -0.1994
      8 C          13.8468   42.6244    7.3430 C.2     1  UNL1        0.2535
      9 O          13.2939   43.7373    7.1313 O.2     1  UNL1       -0.2697
     10 N          13.0563   41.4291    7.3571 N.am    1  UNL1       -0.2641
     11 H          13.5316   40.5708    7.2759 H       1  UNL1        0.1566
     12 C          16.2289   43.2079    6.6747 C.ar    1  UNL1        0.1430
     13 C          15.3157   42.5332    7.5210 C.ar    1  UNL1        0.0876
     14 C          15.8142   41.7491    8.5733 C.ar    1  UNL1        0.0076
     15 C          17.1874   41.6268    8.7902 C.ar    1  UNL1        0.0003
     16 C          18.0854   42.2897    7.9555 C.ar    1  UNL1        0.0031
     17 C          17.6094   43.0749    6.9052 C.ar    1  UNL1        0.0371
     18 C          15.5450   45.4008    5.7405 C.3     1  UNL1        0.2525
     19 O          15.7621   44.0014    5.6193 O.3     1  UNL1       -0.4713
     20 C           8.4195   42.0520    9.0086 C.2     1  UNL1        0.2714
     21 O           8.3696   43.1699    9.5887 O.2     1  UNL1       -0.2680
     22 N           7.3639   41.0983    9.1755 N.am    1  UNL1       -0.2773
     23 H           7.5505   40.1701    8.9057 H       1  UNL1        0.1553
     24 C           6.0597   41.3769    9.7008 C.ar    1  UNL1        0.0785
     25 C           5.7576   41.2491   11.0723 C.ar    1  UNL1        0.1557
     26 C           4.4743   41.5567   11.5354 C.ar    1  UNL1        0.0605
     27 C           3.4919   41.9988   10.6464 C.ar    1  UNL1        0.1425
     28 C           3.7959   42.1559    9.2926 C.ar    1  UNL1        0.0311
     29 C           5.0769   41.8516    8.8249 C.ar    1  UNL1        0.0193
     30 F           6.7062   40.8914   11.9721 F       1  UNL1       -0.2028
     31 F           2.2502   42.2928   11.1005 F       1  UNL1       -0.2041
@<TRIPOS>BOND
     1    18    19    1
     2    12    19    1
     3    13    14   ar
     4    13     8    1
     5    15    16   ar
     6    17    12   ar
     7     8    10   am
     8     2     7    1
     9     2     3   ar
    10     3    20    1
    11     4     6    1
    12    20    22   am
    13    25    30    1
    14    25    26   ar
    15    27    31    1
    16    27    28   ar
    17    29    24   ar
    18    10     1    1
    19     6     5   ar
    20     6     1   ar
    21    22    24    1
    22    12    13   ar
    23    14    15   ar
    24    16    17   ar
    25     8     9    2
    26     1     2   ar
    27     3     5   ar
    28    20    21    2
    29    24    25   ar
    30    26    27   ar
    31    28    29   ar
    32    10    11    1
    33    22    23    1
@<TRIPOS>MOLECULE
MolPort-019-839-885 41070600 CSSS03437762688 MCULE-8219256078 PubChem-52095553 ZINC000041070600 ZINC41070600
 31 33 0 0 0
SMALL
GASTEIGER

@<TRIPOS>ATOM
      1 C           5.8650   41.1299    9.6314 C.ar    1  UNL1        0.1608
      2 C           5.2152   41.7321   10.6810 C.ar    1  UNL1        0.1950
      3 C           3.8971   41.8250   10.2727 C.ar    1  UNL1        0.1843
      4 C           5.2525   40.4344    7.2956 C.3     1  UNL1        0.1552
      5 N           3.7773   41.3261    9.0232 N.ar    1  UNL1       -0.1611
      6 N           4.9746   40.9067    8.6414 N.ar    1  UNL1       -0.2332
      7 F           5.7571   42.1572   11.8489 F       1  UNL1       -0.1994
      8 C           8.2122   41.7418    8.8626 C.2     1  UNL1        0.2535
      9 O           7.7947   42.5635    8.0025 O.2     1  UNL1       -0.2697
     10 N           7.2790   40.9089    9.5619 N.am    1  UNL1       -0.2641
     11 H           7.6381   40.1220   10.0321 H       1  UNL1        0.1566
     12 C          10.4874   40.7342    8.3431 C.ar    1  UNL1        0.1430
     13 C           9.6646   41.5883    9.1170 C.ar    1  UNL1        0.0876
     14 C          10.2412   42.3236   10.1647 C.ar    1  UNL1        0.0076
     15 C          11.6033   42.2204   10.4501 C.ar    1  UNL1        0.0003
     16 C          12.4119   41.3780    9.6892 C.ar    1  UNL1        0.0031
     17 C          11.8578   40.6403    8.6428 C.ar    1  UNL1        0.0371
     18 C           8.5987   39.5279    7.2817 C.3     1  UNL1        0.2525
     19 O           9.9423   39.9914    7.2884 O.3     1  UNL1       -0.4713
     20 C           2.7823   42.4012   11.0345 C.2     1  UNL1        0.2714
     21 O           2.0172   43.2428   10.4911 O.2     1  UNL1       -0.2680
     22 N           2.6077   42.0411   12.4098 N.am    1  UNL1       -0.2773
     23 H           3.3541   41.5737   12.8499 H       1  UNL1        0.1553
     24 C           1.4416   42.3016   13.2015 C.ar    1  UNL1        0.0785
     25 C           1.2616   43.5130   13.9007 C.ar    1  UNL1        0.1557
     26 C           0.0933   43.7249   14.6396 C.ar    1  UNL1        0.0605
     27 C          -0.9011   42.7450   14.6813 C.ar    1  UNL1        0.1425
     28 C          -0.7401   41.5568   13.9656 C.ar    1  UNL1        0.0311
     29 C           0.4244   41.3407   13.2243 C.ar    1  UNL1        0.0193
     30 F           2.1738   44.5127   13.8239 F       1  UNL1       -0.2028
     31 F          -2.0294   42.9549   15.4007 F       1  UNL1       -0.2041
@<TRIPOS>BOND
     1    18    19    1
     2    12    19    1
     3    13    14   ar
     4    13     8    1
     5    15    16   ar
     6    17    12   ar
     7     8    10   am
     8     2     7    1
     9     2     3   ar
    10     3    20    1
    11     4     6    1
    12    20    22   am
    13    25    30    1
    14    25    26   ar
    15    27    31    1
    16    27    28   ar
    17    29    24   ar
    18    10     1    1
    19     6     5   ar
    20     6     1   ar
    21    22    24    1
    22    12    13   ar
    23    14    15   ar
    24    16    17   ar
    25     8     9    2
    26     1     2   ar
    27     3     5   ar
    28    20    21    2
    29    24    25   ar
    30    26    27   ar
    31    28    29   ar
    32    10    11    1
    33    22    23    1
@<TRIPOS>MOLECULE
MolPort-019-839-885 41070600 CSSS03437762688 MCULE-8219256078 PubChem-52095553 ZINC000041070600 ZINC41070600
 31 33 0 0 0
SMALL
GASTEIGER

@<TRIPOS>ATOM
      1 C           9.6800   40.4555    8.1167 C.ar    1  UNL1        0.1608
      2 C          10.7261   41.3424    8.1902 C.ar    1  UNL1        0.1950
      3 C          11.6449   40.8809    7.2654 C.ar    1  UNL1        0.1843
      4 C           9.2396   38.2858    6.9276 C.3     1  UNL1        0.1552
      5 N          11.1758   39.7523    6.6902 N.ar    1  UNL1       -0.1611
      6 N           9.9841   39.5010    7.2115 N.ar    1  UNL1       -0.2332
      7 F          10.8354   42.4196    9.0064 F       1  UNL1       -0.1994
      8 C           7.5445   41.5211    8.9995 C.2     1  UNL1        0.2535
      9 O           7.8068   42.6431    8.4882 O.2     1  UNL1       -0.2697
     10 N           8.5262   40.4776    8.9660 N.am    1  UNL1       -0.2641
     11 H           8.3976   39.7151    9.5753 H       1  UNL1        0.1566
     12 C           6.1507   41.1376   11.0904 C.ar    1  UNL1        0.1430
     13 C           6.2513   41.2883    9.6860 C.ar    1  UNL1        0.0876
     14 C           5.0846   41.2195    8.9084 C.ar    1  UNL1        0.0076
     15 C           3.8390   41.0035    9.4994 C.ar    1  UNL1        0.0003
     16 C           3.7413   40.8532   10.8816 C.ar    1  UNL1        0.0031
     17 C           4.8892   40.9200   11.6715 C.ar    1  UNL1        0.0371
     18 C           8.1453   42.3450   11.9346 C.3     1  UNL1        0.2525
     19 O           7.2961   41.2060   11.8934 O.3     1  UNL1       -0.4713
     20 C          12.9507   41.4759    6.9554 C.2     1  UNL1        0.2714
     21 O          13.1276   42.0681    5.8567 O.2     1  UNL1       -0.2680
     22 N          14.0307   41.3293    7.8847 N.am    1  UNL1       -0.2773
     23 H          13.9161   40.6689    8.6058 H       1  UNL1        0.1553
     24 C          15.2637   42.0596    7.8568 C.ar    1  UNL1        0.0785
     25 C          16.4073   41.6332    8.5632 C.ar    1  UNL1        0.1557
     26 C          17.5925   42.3712    8.4823 C.ar    1  UNL1        0.0605
     27 C          17.6516   43.5249    7.6974 C.ar    1  UNL1        0.1425
     28 C          16.5304   43.9334    6.9721 C.ar    1  UNL1        0.0311
     29 C          15.3442   43.1988    7.0480 C.ar    1  UNL1        0.0193
     30 F          16.4053   40.4807    9.2767 F       1  UNL1       -0.2028
     31 F          18.8016   44.2370    7.6249 F       1  UNL1       -0.2041
@<TRIPOS>BOND
     1    18    19    1
     2    12    19    1
     3    13    14   ar
     4    13     8    1
     5    15    16   ar
     6    17    12   ar
     7     8    10   am
     8     2     7    1
     9     2     3   ar
    10     3    20    1
    11     4     6    1
    12    20    22   am
    13    25    30    1
    14    25    26   ar
    15    27    31    1
    16    27    28   ar
    17    29    24   ar
    18    10     1    1
    19     6     5   ar
    20     6     1   ar
    21    22    24    1
    22    12    13   ar
    23    14    15   ar
    24    16    17   ar
    25     8     9    2
    26     1     2   ar
    27     3     5   ar
    28    20    21    2
    29    24    25   ar
    30    26    27   ar
    31    28    29   ar
    32    10    11    1
    33    22    23    1
@<TRIPOS>MOLECULE
MolPort-019-839-885 41070600 CSSS03437762688 MCULE-8219256078 PubChem-52095553 ZINC000041070600 ZINC41070600
 31 33 0 0 0
SMALL
GASTEIGER

@<TRIPOS>ATOM
      1 C          11.7280   41.3611    8.2717 C.ar    1  UNL1        0.1608
      2 C          10.9440   41.8860    9.2697 C.ar    1  UNL1        0.1950
      3 C           9.6453   41.7029    8.8308 C.ar    1  UNL1        0.1843
      4 C          11.3304   40.4322    5.9707 C.3     1  UNL1        0.1552
      5 N           9.6607   41.1213    7.6117 N.ar    1  UNL1       -0.1611
      6 N          10.9269   40.9173    7.2797 N.ar    1  UNL1       -0.2332
      7 F          11.3594   42.4712   10.4202 F       1  UNL1       -0.1994
      8 C          13.9422   42.1788    7.3211 C.2     1  UNL1        0.2535
      9 O          13.4088   42.6276    6.2708 O.2     1  UNL1       -0.2697
     10 N          13.1597   41.4102    8.2435 N.am    1  UNL1       -0.2641
     11 H          13.6446   40.8731    8.9110 H       1  UNL1        0.1566
     12 C          16.1849   43.2548    6.7971 C.ar    1  UNL1        0.1430
     13 C          15.3859   42.3898    7.5838 C.ar    1  UNL1        0.0876
     14 C          15.9770   41.7058    8.6578 C.ar    1  UNL1        0.0076
     15 C          17.3314   41.8659    8.9535 C.ar    1  UNL1        0.0003
     16 C          18.1173   42.7159    8.1774 C.ar    1  UNL1        0.0031
     17 C          17.5479   43.4056    7.1068 C.ar    1  UNL1        0.0371
     18 C          14.9708   45.2086    5.8710 C.3     1  UNL1        0.2525
     19 O          15.6230   43.9546    5.7219 O.3     1  UNL1       -0.4713
     20 C           8.4187   42.0976    9.5342 C.2     1  UNL1        0.2714
     21 O           8.3726   43.1959   10.1511 O.2     1  UNL1       -0.2680
     22 N           7.3009   41.2024    9.5584 N.am    1  UNL1       -0.2773
     23 H           7.4622   40.2747    9.2710 H       1  UNL1        0.1553
     24 C           5.9680   41.5388    9.9642 C.ar    1  UNL1        0.0785
     25 C           5.1778   42.4685    9.2572 C.ar    1  UNL1        0.1557
     26 C           3.8742   42.7425    9.6833 C.ar    1  UNL1        0.0605
     27 C           3.3475   42.0925   10.8017 C.ar    1  UNL1        0.1425
     28 C           4.1160   41.1486   11.4861 C.ar    1  UNL1        0.0311
     29 C           5.4184   40.8698   11.0638 C.ar    1  UNL1        0.0193
     30 F           5.6322   43.0637    8.1274 F       1  UNL1       -0.2028
     31 F           2.0852   42.3638   11.2110 F       1  UNL1       -0.2041
@<TRIPOS>BOND
     1    18    19    1
     2    12    19    1
     3    13    14   ar
     4    13     8    1
     5    15    16   ar
     6    17    12   ar
     7     8    10   am
     8     2     7    1
     9     2     3   ar
    10     3    20    1
    11     4     6    1
    12    20    22   am
    13    25    30    1
    14    25    26   ar
    15    27    31    1
    16    27    28   ar
    17    29    24   ar
    18    10     1    1
    19     6     5   ar
    20     6     1   ar
    21    22    24    1
    22    12    13   ar
    23    14    15   ar
    24    16    17   ar
    25     8     9    2
    26     1     2   ar
    27     3     5   ar
    28    20    21    2
    29    24    25   ar
    30    26    27   ar
    31    28    29   ar
    32    10    11    1
    33    22    23    1
@<TRIPOS>MOLECULE
MolPort-019-839-885 41070600 CSSS03437762688 MCULE-8219256078 PubChem-52095553 ZINC000041070600 ZINC41070600
 31 33 0 0 0
SMALL
GASTEIGER

@<TRIPOS>ATOM
      1 C          11.7250   41.6402    8.1439 C.ar    1  UNL1        0.1608
      2 C          10.8617   42.2906    8.9913 C.ar    1  UNL1        0.1950
      3 C           9.6020   41.8836    8.5914 C.ar    1  UNL1        0.1843
      4 C          11.4944   40.1889    6.1053 C.3     1  UNL1        0.1552
      5 N           9.7132   41.0509    7.5337 N.ar    1  UNL1       -0.1611
      6 N          11.0034   40.9083    7.2684 N.ar    1  UNL1       -0.2332
      7 F          11.1808   43.1554    9.9857 F       1  UNL1       -0.1994
      8 C          13.8797   42.4439    7.0547 C.2     1  UNL1        0.2535
      9 O          13.3402   42.5876    5.9244 O.2     1  UNL1       -0.2697
     10 N          13.1453   41.8274    8.1197 N.am    1  UNL1       -0.2641
     11 H          13.6577   41.5068    8.8969 H       1  UNL1        0.1566
     12 C          16.2542   41.9862    7.8381 C.ar    1  UNL1        0.1430
     13 C          15.2867   42.8547    7.2770 C.ar    1  UNL1        0.0876
     14 C          15.6691   44.1551    6.9116 C.ar    1  UNL1        0.0076
     15 C          16.9798   44.5971    7.0964 C.ar    1  UNL1        0.0003
     16 C          17.9309   43.7422    7.6505 C.ar    1  UNL1        0.0031
     17 C          17.5705   42.4457    8.0186 C.ar    1  UNL1        0.0371
     18 C          15.6244   40.3069    9.5505 C.3     1  UNL1        0.2525
     19 O          15.9043   40.6816    8.2083 O.3     1  UNL1       -0.4713
     20 C           8.3206   42.2973    9.1764 C.2     1  UNL1        0.2714
     21 O           8.1214   43.5086    9.4629 O.2     1  UNL1       -0.2680
     22 N           7.3264   41.3082    9.4674 N.am    1  UNL1       -0.2773
     23 H           7.6112   40.3660    9.4479 H       1  UNL1        0.1553
     24 C           5.9533   41.5698    9.7847 C.ar    1  UNL1        0.0785
     25 C           5.0754   42.1919    8.8731 C.ar    1  UNL1        0.1557
     26 C           3.7384   42.4021    9.2253 C.ar    1  UNL1        0.0605
     27 C           3.2658   41.9905   10.4735 C.ar    1  UNL1        0.1425
     28 C           4.1244   41.3467   11.3669 C.ar    1  UNL1        0.0311
     29 C           5.4607   41.1326   11.0195 C.ar    1  UNL1        0.0193
     30 F           5.4832   42.5391    7.6279 F       1  UNL1       -0.2028
     31 F           1.9704   42.1991   10.8098 F       1  UNL1       -0.2041
@<TRIPOS>BOND
     1    18    19    1
     2    12    19    1
     3    13    14   ar
     4    13     8    1
     5    15    16   ar
     6    17    12   ar
     7     8    10   am
     8     2     7    1
     9     2     3   ar
    10     3    20    1
    11     4     6    1
    12    20    22   am
    13    25    30    1
    14    25    26   ar
    15    27    31    1
    16    27    28   ar
    17    29    24   ar
    18    10     1    1
    19     6     5   ar
    20     6     1   ar
    21    22    24    1
    22    12    13   ar
    23    14    15   ar
    24    16    17   ar
    25     8     9    2
    26     1     2   ar
    27     3     5   ar
    28    20    21    2
    29    24    25   ar
    30    26    27   ar
    31    28    29   ar
    32    10    11    1
    33    22    23    1
@<TRIPOS>MOLECULE
MolPort-019-839-885 41070600 CSSS03437762688 MCULE-8219256078 PubChem-52095553 ZINC000041070600 ZINC41070600
 31 33 0 0 0
SMALL
GASTEIGER

@<TRIPOS>ATOM
      1 C          12.6548   38.3266    8.7948 C.ar    1  UNL1        0.1608
      2 C          12.3820   39.5572    8.2492 C.ar    1  UNL1        0.1950
      3 C          11.1453   39.9037    8.7623 C.ar    1  UNL1        0.1843
      4 C          11.4056   36.6680   10.2103 C.3     1  UNL1        0.1552
      5 N          10.6922   38.9079    9.5544 N.ar    1  UNL1       -0.1611
      6 N          11.6129   37.9554    9.5690 N.ar    1  UNL1       -0.2332
      7 F          13.1514   40.2619    7.3833 F       1  UNL1       -0.1994
      8 C          14.7899   37.0878    9.4127 C.2     1  UNL1        0.2535
      9 O          14.8753   37.6480   10.5388 O.2     1  UNL1       -0.2697
     10 N          13.7980   37.5242    8.4750 N.am    1  UNL1       -0.2641
     11 H          13.9111   37.2508    7.5360 H       1  UNL1        0.1566
     12 C          17.1408   36.2353    8.9564 C.ar    1  UNL1        0.1430
     13 C          15.7430   36.0198    9.0269 C.ar    1  UNL1        0.0876
     14 C          15.2341   34.7468    8.7247 C.ar    1  UNL1        0.0076
     15 C          16.0833   33.7025    8.3564 C.ar    1  UNL1        0.0003
     16 C          17.4587   33.9162    8.2853 C.ar    1  UNL1        0.0031
     17 C          17.9837   35.1738    8.5835 C.ar    1  UNL1        0.0371
     18 C          18.4289   37.7523   10.4358 C.3     1  UNL1        0.2525
     19 O          17.6790   37.4930    9.2566 O.3     1  UNL1       -0.4713
     20 C          10.3952   41.1348    8.4849 C.2     1  UNL1        0.2714
     21 O          10.8110   41.9416    7.6101 O.2     1  UNL1       -0.2680
     22 N           9.2237   41.4345    9.2525 N.am    1  UNL1       -0.2773
     23 H           9.0740   40.9049   10.0688 H       1  UNL1        0.1553
     24 C           8.2502   42.4380    8.9365 C.ar    1  UNL1        0.0785
     25 C           8.4287   43.7943    9.2788 C.ar    1  UNL1        0.1557
     26 C           7.4575   44.7365    8.9253 C.ar    1  UNL1        0.0605
     27 C           6.3146   44.3416    8.2263 C.ar    1  UNL1        0.1425
     28 C           6.1489   43.0047    7.8587 C.ar    1  UNL1        0.0311
     29 C           7.1168   42.0595    8.2079 C.ar    1  UNL1        0.0193
     30 F           9.5582   44.2227    9.8937 F       1  UNL1       -0.2028
     31 F           5.3763   45.2583    7.8888 F       1  UNL1       -0.2041
@<TRIPOS>BOND
     1    18    19    1
     2    12    19    1
     3    13    14   ar
     4    13     8    1
     5    15    16   ar
     6    17    12   ar
     7     8    10   am
     8     2     7    1
     9     2     3   ar
    10     3    20    1
    11     4     6    1
    12    20    22   am
    13    25    30    1
    14    25    26   ar
    15    27    31    1
    16    27    28   ar
    17    29    24   ar
    18    10     1    1
    19     6     5   ar
    20     6     1   ar
    21    22    24    1
    22    12    13   ar
    23    14    15   ar
    24    16    17   ar
    25     8     9    2
    26     1     2   ar
    27     3     5   ar
    28    20    21    2
    29    24    25   ar
    30    26    27   ar
    31    28    29   ar
    32    10    11    1
    33    22    23    1
@<TRIPOS>MOLECULE
MolPort-019-839-885 41070600 CSSS03437762688 MCULE-8219256078 PubChem-52095553 ZINC000041070600 ZINC41070600
 31 33 0 0 0
SMALL
GASTEIGER

@<TRIPOS>ATOM
      1 C           9.3757   40.9398    8.1621 C.ar    1  UNL1        0.1608
      2 C          10.4756   41.7621    8.1822 C.ar    1  UNL1        0.1950
      3 C          11.3645   41.1832    7.2949 C.ar    1  UNL1        0.1843
      4 C           8.8005   38.7278    7.1174 C.3     1  UNL1        0.1552
      5 N          10.8257   40.0506    6.7935 N.ar    1  UNL1       -0.1611
      6 N           9.6199   39.9099    7.3240 N.ar    1  UNL1       -0.2332
      7 F          10.6517   42.8823    8.9257 F       1  UNL1       -0.1994
      8 C           7.3412   42.2194    8.9982 C.2     1  UNL1        0.2535
      9 O           7.7063   43.2976    8.4567 O.2     1  UNL1       -0.2697
     10 N           8.2247   41.0910    9.0020 N.am    1  UNL1       -0.2641
     11 H           8.0248   40.3614    9.6321 H       1  UNL1        0.1566
     12 C           4.8991   42.8712    9.2679 C.ar    1  UNL1        0.1430
     13 C           6.0290   42.1246    9.6816 C.ar    1  UNL1        0.0876
     14 C           5.9075   41.2564   10.7781 C.ar    1  UNL1        0.0076
     15 C           4.6969   41.1250   11.4596 C.ar    1  UNL1        0.0003
     16 C           3.5859   41.8618   11.0530 C.ar    1  UNL1        0.0031
     17 C           3.6863   42.7286    9.9646 C.ar    1  UNL1        0.0371
     18 C           3.9981   44.7192    7.8816 C.3     1  UNL1        0.2525
     19 O           4.9877   43.7420    8.1747 O.3     1  UNL1       -0.4713
     20 C          12.7055   41.6729    6.9530 C.2     1  UNL1        0.2714
     21 O          12.9500   42.0735    5.7831 O.2     1  UNL1       -0.2680
     22 N          13.7416   41.6392    7.9415 N.am    1  UNL1       -0.2773
     23 H          13.5710   41.1083    8.7529 H       1  UNL1        0.1553
     24 C          15.0049   42.3105    7.8530 C.ar    1  UNL1        0.0785
     25 C          16.1730   41.7989    8.4550 C.ar    1  UNL1        0.1557
     26 C          17.3853   42.4825    8.3175 C.ar    1  UNL1        0.0605
     27 C          17.4465   43.6662    7.5786 C.ar    1  UNL1        0.1425
     28 C          16.2984   44.1596    6.9554 C.ar    1  UNL1        0.0311
     29 C          15.0850   43.4797    7.0881 C.ar    1  UNL1        0.0193
     30 F          16.1636   40.6169    9.1185 F       1  UNL1       -0.2028
     31 F          18.6230   44.3252    7.4510 F       1  UNL1       -0.2041
@<TRIPOS>BOND
     1    18    19    1
     2    12    19    1
     3    13    14   ar
     4    13     8    1
     5    15    16   ar
     6    17    12   ar
     7     8    10   am
     8     2     7    1
     9     2     3   ar
    10     3    20    1
    11     4     6    1
    12    20    22   am
    13    25    30    1
    14    25    26   ar
    15    27    31    1
    16    27    28   ar
    17    29    24   ar
    18    10     1    1
    19     6     5   ar
    20     6     1   ar
    21    22    24    1
    22    12    13   ar
    23    14    15   ar
    24    16    17   ar
    25     8     9    2
    26     1     2   ar
    27     3     5   ar
    28    20    21    2
    29    24    25   ar
    30    26    27   ar
    31    28    29   ar
    32    10    11    1
    33    22    23    1
