@<TRIPOS>MOLECULE
MolPort-005-154-018 15066060 CSSS00160034953 PubChem-26395851 ZINC000015066060
 33 37 0 0 0
SMALL
GASTEIGER

@<TRIPOS>ATOM
      1 C          11.4290   41.0706    9.9849 C.ar    1  UNL1        0.1328
      2 C          10.7313   41.7973   10.9320 C.ar    1  UNL1        0.0565
      3 C           9.5342   41.1001   11.0548 C.ar    1  UNL1        0.1230
      4 N           9.5408   40.0343   10.2258 N.ar    1  UNL1       -0.1666
      5 N          10.6967   40.0217    9.5857 N.ar    1  UNL1       -0.2394
      6 C          11.0799   39.0467    8.5666 C.3     1  UNL1        0.1093
      7 C          11.2905   39.7263    7.2062 C.3     1  UNL1        0.0418
      8 C           9.9791   40.0140    6.4503 C.3     1  UNL1        0.0744
      9 C           9.1142   37.9836    7.3338 C.3     1  UNL1        0.0744
     10 C          10.0848   37.8757    8.5119 C.3     1  UNL1        0.0418
     11 N           8.8089   39.3852    7.0724 N.3     1  UNL1       -0.2688
     12 C           7.7312   39.4156    6.0970 C.3     1  UNL1        0.0989
     13 C           6.5973   40.2387    6.6107 C.2     1  UNL1       -0.0088
     14 C           6.6936   40.8730    7.7764 C.2     1  UNL1       -0.0032
     15 C           5.6127   41.7063    8.3200 C.ar    1  UNL1       -0.0003
     16 C           4.6005   41.0937    9.0670 C.ar    1  UNL1       -0.0000
     17 C           3.5628   41.8584    9.6094 C.ar    1  UNL1       -0.0000
     18 C           3.5333   43.2411    9.4066 C.ar    1  UNL1       -0.0000
     19 C           4.5406   43.8601    8.6609 C.ar    1  UNL1       -0.0000
     20 C           5.5781   43.0959    8.1187 C.ar    1  UNL1       -0.0000
     21 O          12.0745   42.7779    7.7190 O.2     1  UNL1       -0.2698
     22 C          13.0136   42.2140    8.3446 C.2     1  UNL1        0.2506
     23 N          12.7328   41.3693    9.4693 N.am    1  UNL1       -0.2660
     24 H          13.5021   40.9592    9.9268 H       1  UNL1        0.1566
     25 O          18.2451   43.1678    6.5543 O.3     1  UNL1       -0.4346
     26 O          16.5581   44.2752    5.5001 O.3     1  UNL1       -0.4346
     27 C          14.4077   42.4236    7.9172 C.ar    1  UNL1        0.0569
     28 C          14.6986   43.3103    6.8587 C.ar    1  UNL1        0.0447
     29 C          16.0322   43.4740    6.4939 C.ar    1  UNL1        0.1766
     30 C          17.0373   42.8137    7.1218 C.ar    1  UNL1        0.1764
     31 C          17.9830   44.1081    5.5029 C.3     1  UNL1        0.4294
     32 C          16.7998   41.9298    8.1700 C.ar    1  UNL1        0.0403
     33 C          15.4640   41.7382    8.5667 C.ar    1  UNL1        0.0078
@<TRIPOS>BOND
     1    22    23   am
     2    22    27    1
     3     2     3   ar
     4     6     5    1
     5     6     7    1
     6     7     8    1
     7     8    11    1
     8    12    11    1
     9    12    13    1
    10    14    15    1
    11    16    17   ar
    12    18    19   ar
    13    20    15   ar
    14     9    11    1
    15     9    10    1
    16    10     6    1
    17    28    29   ar
    18    29    26    1
    19    30    25    1
    20    30    32   ar
    21    31    25    1
    22    31    26    1
    23    33    27   ar
    24    23     1    1
    25     5     4   ar
    26     5     1   ar
    27    22    21    2
    28     1     2   ar
    29     3     4   ar
    30    13    14    2
    31    15    16   ar
    32    17    18   ar
    33    19    20   ar
    34    27    28   ar
    35    29    30   ar
    36    32    33   ar
    37    23    24    1
@<TRIPOS>MOLECULE
MolPort-005-154-018 15066060 CSSS00160034953 PubChem-26395851 ZINC000015066060
 33 37 0 0 0
SMALL
GASTEIGER

@<TRIPOS>ATOM
      1 C           9.2697   41.7911    6.1518 C.ar    1  UNL1        0.1328
      2 C           8.3201   42.7587    6.4239 C.ar    1  UNL1        0.0565
      3 C           7.1156   42.0914    6.2278 C.ar    1  UNL1        0.1230
      4 N           7.3568   40.8141    5.8626 N.ar    1  UNL1       -0.1666
      5 N           8.6661   40.6400    5.8252 N.ar    1  UNL1       -0.2394
      6 C           9.3363   39.4016    5.4338 C.3     1  UNL1        0.1093
      7 C           8.9518   38.2478    6.3707 C.3     1  UNL1        0.0418
      8 C           9.7221   38.2534    7.7051 C.3     1  UNL1        0.0744
      9 C          11.6204   39.0520    6.5177 C.3     1  UNL1        0.0744
     10 C          10.8558   39.6034    5.3122 C.3     1  UNL1        0.0418
     11 N          10.8238   39.2216    7.7271 N.3     1  UNL1       -0.2688
     12 C          11.6766   38.8817    8.8546 C.3     1  UNL1        0.0989
     13 C          11.0343   39.3106   10.1315 C.2     1  UNL1       -0.0088
     14 C          10.4613   40.5072   10.2335 C.2     1  UNL1       -0.0032
     15 C           9.8038   40.9719   11.4624 C.ar    1  UNL1       -0.0003
     16 C          10.4819   40.8425   12.6795 C.ar    1  UNL1       -0.0000
     17 C           9.8907   41.2853   13.8670 C.ar    1  UNL1       -0.0000
     18 C           8.6169   41.8603   13.8419 C.ar    1  UNL1       -0.0000
     19 C           7.9331   41.9923   12.6300 C.ar    1  UNL1       -0.0000
     20 C           8.5239   41.5498   11.4427 C.ar    1  UNL1       -0.0000
     21 O          10.8809   42.6810    8.4052 O.2     1  UNL1       -0.2698
     22 C          11.4551   42.4040    7.3167 C.2     1  UNL1        0.2506
     23 N          10.6931   41.9578    6.1864 N.am    1  UNL1       -0.2660
     24 H          11.1906   41.7479    5.3632 H       1  UNL1        0.1566
     25 O          16.9927   43.0887    6.7245 O.3     1  UNL1       -0.4346
     26 O          15.6333   44.3443    5.3981 O.3     1  UNL1       -0.4346
     27 C          12.9177   42.5400    7.2051 C.ar    1  UNL1        0.0569
     28 C          13.4764   43.4478    6.2803 C.ar    1  UNL1        0.0447
     29 C          14.8640   43.5395    6.2146 C.ar    1  UNL1        0.1766
     30 C          15.6739   42.7909    7.0046 C.ar    1  UNL1        0.1764
     31 C          17.0133   44.0853    5.6928 C.3     1  UNL1        0.4294
     32 C          15.1697   41.8829    7.9307 C.ar    1  UNL1        0.0403
     33 C          13.7715   41.7622    8.0257 C.ar    1  UNL1        0.0078
@<TRIPOS>BOND
     1    22    23   am
     2    22    27    1
     3     2     3   ar
     4     6     5    1
     5     6     7    1
     6     7     8    1
     7     8    11    1
     8    12    11    1
     9    12    13    1
    10    14    15    1
    11    16    17   ar
    12    18    19   ar
    13    20    15   ar
    14     9    11    1
    15     9    10    1
    16    10     6    1
    17    28    29   ar
    18    29    26    1
    19    30    25    1
    20    30    32   ar
    21    31    25    1
    22    31    26    1
    23    33    27   ar
    24    23     1    1
    25     5     4   ar
    26     5     1   ar
    27    22    21    2
    28     1     2   ar
    29     3     4   ar
    30    13    14    2
    31    15    16   ar
    32    17    18   ar
    33    19    20   ar
    34    27    28   ar
    35    29    30   ar
    36    32    33   ar
    37    23    24    1
@<TRIPOS>MOLECULE
MolPort-005-154-018 15066060 CSSS00160034953 PubChem-26395851 ZINC000015066060
 33 37 0 0 0
SMALL
GASTEIGER

@<TRIPOS>ATOM
      1 C           8.1943   41.1104    7.7258 C.ar    1  UNL1        0.1328
      2 C           8.1078   40.8539    6.3697 C.ar    1  UNL1        0.0565
      3 C           9.3836   41.1533    5.9037 C.ar    1  UNL1        0.1230
      4 N          10.1598   41.5600    6.9310 N.ar    1  UNL1       -0.1666
      5 N           9.4312   41.5248    8.0327 N.ar    1  UNL1       -0.2394
      6 C           9.8954   41.9296    9.3580 C.3     1  UNL1        0.1093
      7 C          11.2053   42.7246    9.2635 C.3     1  UNL1        0.0418
      8 C          12.4536   41.8389    9.0871 C.3     1  UNL1        0.0744
      9 C          11.4203   40.2335   10.5035 C.3     1  UNL1        0.0744
     10 C           9.9842   40.7256   10.3104 C.3     1  UNL1        0.0418
     11 N          12.1731   40.4103    9.2674 N.3     1  UNL1       -0.2688
     12 C          13.4499   39.7370    9.4418 C.3     1  UNL1        0.0989
     13 C          14.5708   40.6940    9.2079 C.2     1  UNL1       -0.0088
     14 C          14.6949   41.3205    8.0406 C.2     1  UNL1       -0.0032
     15 C          15.7712   42.2815    7.7642 C.ar    1  UNL1       -0.0003
     16 C          15.6055   43.1962    6.7184 C.ar    1  UNL1       -0.0000
     17 C          16.6046   44.1328    6.4353 C.ar    1  UNL1       -0.0000
     18 C          17.7756   44.1582    7.1984 C.ar    1  UNL1       -0.0000
     19 C          17.9486   43.2472    8.2443 C.ar    1  UNL1       -0.0000
     20 C          16.9498   42.3109    8.5275 C.ar    1  UNL1       -0.0000
     21 O           6.3766   43.1937    8.6323 O.2     1  UNL1       -0.2698
     22 C           6.2642   42.0338    9.1153 C.2     1  UNL1        0.2506
     23 N           7.1398   40.9811    8.6883 N.am    1  UNL1       -0.2660
     24 H           7.0051   40.0929    9.0910 H       1  UNL1        0.1566
     25 O           2.2024   41.1829   12.8919 O.3     1  UNL1       -0.4346
     26 O           2.0550   43.0493   11.5961 O.3     1  UNL1       -0.4346
     27 C           5.2273   41.7583   10.1249 C.ar    1  UNL1        0.0569
     28 C           4.1434   42.6470   10.2880 C.ar    1  UNL1        0.0447
     29 C           3.1898   42.3408   11.2551 C.ar    1  UNL1        0.1766
     30 C           3.2781   41.2289   12.0275 C.ar    1  UNL1        0.1764
     31 C           1.3880   42.3388   12.6491 C.3     1  UNL1        0.4294
     32 C           4.3277   40.3238   11.9033 C.ar    1  UNL1        0.0403
     33 C           5.3112   40.5999   10.9364 C.ar    1  UNL1        0.0078
@<TRIPOS>BOND
     1    22    23   am
     2    22    27    1
     3     2     3   ar
     4     6     5    1
     5     6     7    1
     6     7     8    1
     7     8    11    1
     8    12    11    1
     9    12    13    1
    10    14    15    1
    11    16    17   ar
    12    18    19   ar
    13    20    15   ar
    14     9    11    1
    15     9    10    1
    16    10     6    1
    17    28    29   ar
    18    29    26    1
    19    30    25    1
    20    30    32   ar
    21    31    25    1
    22    31    26    1
    23    33    27   ar
    24    23     1    1
    25     5     4   ar
    26     5     1   ar
    27    22    21    2
    28     1     2   ar
    29     3     4   ar
    30    13    14    2
    31    15    16   ar
    32    17    18   ar
    33    19    20   ar
    34    27    28   ar
    35    29    30   ar
    36    32    33   ar
    37    23    24    1
@<TRIPOS>MOLECULE
MolPort-005-154-018 15066060 CSSS00160034953 PubChem-26395851 ZINC000015066060
 33 37 0 0 0
SMALL
GASTEIGER

@<TRIPOS>ATOM
      1 C           9.6046   40.4558    5.9491 C.ar    1  UNL1        0.1328
      2 C           9.4639   39.0954    5.7450 C.ar    1  UNL1        0.0565
      3 C           8.0852   38.9121    5.7378 C.ar    1  UNL1        0.1230
      4 N           7.4672   40.0974    5.9280 N.ar    1  UNL1       -0.1666
      5 N           8.3971   41.0284    6.0491 N.ar    1  UNL1       -0.2394
      6 C           8.1381   42.4434    6.3069 C.3     1  UNL1        0.1093
      7 C           8.7367   42.8764    7.6527 C.3     1  UNL1        0.0418
      8 C           7.8714   42.4877    8.8668 C.3     1  UNL1        0.0744
      9 C           5.9484   42.9071    7.5335 C.3     1  UNL1        0.0744
     10 C           6.6412   42.7700    6.1759 C.3     1  UNL1        0.0418
     11 N           6.5471   41.9824    8.4888 N.3     1  UNL1       -0.2688
     12 C           5.7187   42.0027    9.6835 C.3     1  UNL1        0.0989
     13 C           6.5685   41.8437   10.8999 C.2     1  UNL1       -0.0088
     14 C           7.8419   41.4728   10.7934 C.2     1  UNL1       -0.0032
     15 C           8.7244   41.3153   11.9574 C.ar    1  UNL1       -0.0003
     16 C          10.0946   41.1287   11.7437 C.ar    1  UNL1       -0.0000
     17 C          10.9650   40.9873   12.8291 C.ar    1  UNL1       -0.0000
     18 C          10.4677   41.0321   14.1347 C.ar    1  UNL1       -0.0000
     19 C           9.1001   41.2174   14.3560 C.ar    1  UNL1       -0.0000
     20 C           8.2298   41.3589   13.2712 C.ar    1  UNL1       -0.0000
     21 O          11.8655   39.8261    7.6687 O.2     1  UNL1       -0.2698
     22 C          11.9306   40.8418    6.9235 C.2     1  UNL1        0.2506
     23 N          10.8369   41.1799    6.0593 N.am    1  UNL1       -0.2660
     24 H          10.9415   41.9783    5.4929 H       1  UNL1        0.1566
     25 O          16.4240   44.2010    6.8277 O.3     1  UNL1       -0.4346
     26 O          14.6939   44.7247    5.4434 O.3     1  UNL1       -0.4346
     27 C          13.1372   41.6867    6.9410 C.ar    1  UNL1        0.0569
     28 C          13.2210   42.8198    6.1040 C.ar    1  UNL1        0.0447
     29 C          14.3822   43.5858    6.1591 C.ar    1  UNL1        0.1766
     30 C          15.4133   43.2734    6.9836 C.ar    1  UNL1        0.1764
     31 C          16.0030   45.1551    5.8426 C.3     1  UNL1        0.4294
     32 C          15.3768   42.1667    7.8264 C.ar    1  UNL1        0.0403
     33 C          14.2192   41.3681    7.7984 C.ar    1  UNL1        0.0078
@<TRIPOS>BOND
     1    22    23   am
     2    22    27    1
     3     2     3   ar
     4     6     5    1
     5     6     7    1
     6     7     8    1
     7     8    11    1
     8    12    11    1
     9    12    13    1
    10    14    15    1
    11    16    17   ar
    12    18    19   ar
    13    20    15   ar
    14     9    11    1
    15     9    10    1
    16    10     6    1
    17    28    29   ar
    18    29    26    1
    19    30    25    1
    20    30    32   ar
    21    31    25    1
    22    31    26    1
    23    33    27   ar
    24    23     1    1
    25     5     4   ar
    26     5     1   ar
    27    22    21    2
    28     1     2   ar
    29     3     4   ar
    30    13    14    2
    31    15    16   ar
    32    17    18   ar
    33    19    20   ar
    34    27    28   ar
    35    29    30   ar
    36    32    33   ar
    37    23    24    1
@<TRIPOS>MOLECULE
MolPort-005-154-018 15066060 CSSS00160034953 PubChem-26395851 ZINC000015066060
 33 37 0 0 0
SMALL
GASTEIGER

@<TRIPOS>ATOM
      1 C          13.9724   36.0368    9.1425 C.ar    1  UNL1        0.1328
      2 C          13.1916   34.9812    9.5762 C.ar    1  UNL1        0.0565
      3 C          12.5253   35.5056   10.6787 C.ar    1  UNL1        0.1230
      4 N          12.9012   36.7882   10.8702 N.ar    1  UNL1       -0.1666
      5 N          13.7745   37.1029    9.9299 N.ar    1  UNL1       -0.2394
      6 C          14.4513   38.3929    9.8122 C.3     1  UNL1        0.1093
      7 C          14.5612   39.0835   11.1789 C.3     1  UNL1        0.0418
      8 C          13.2660   39.7932   11.6179 C.3     1  UNL1        0.0744
      9 C          12.8950   40.3598    9.3392 C.3     1  UNL1        0.0744
     10 C          13.7910   39.2741    8.7389 C.3     1  UNL1        0.0418
     11 N          12.2597   39.8602   10.5528 N.3     1  UNL1       -0.2688
     12 C          11.2681   40.8445   10.9552 C.3     1  UNL1        0.0989
     13 C          10.0493   40.7232   10.1027 C.2     1  UNL1       -0.0088
     14 C          10.1374   40.2709    8.8544 C.2     1  UNL1       -0.0032
     15 C           8.9674   40.1196    7.9789 C.ar    1  UNL1       -0.0003
     16 C           7.8137   40.8588    8.2624 C.ar    1  UNL1       -0.0000
     17 C           6.6859   40.7482    7.4431 C.ar    1  UNL1       -0.0000
     18 C           6.7074   39.8962    6.3350 C.ar    1  UNL1       -0.0000
     19 C           7.8560   39.1541    6.0459 C.ar    1  UNL1       -0.0000
     20 C           8.9836   39.2646    6.8647 C.ar    1  UNL1       -0.0000
     21 O          16.5600   34.7139    9.0006 O.2     1  UNL1       -0.2698
     22 C          16.1534   35.3670    8.0009 C.2     1  UNL1        0.2506
     23 N          14.8808   36.0279    8.0336 N.am    1  UNL1       -0.2660
     24 H          14.6076   36.5178    7.2245 H       1  UNL1        0.1566
     25 O          19.1470   35.6649    3.2644 O.3     1  UNL1       -0.4346
     26 O          16.9009   35.3484    3.0669 O.3     1  UNL1       -0.4346
     27 C          16.9910   35.4522    6.7920 C.ar    1  UNL1        0.0569
     28 C          16.4036   35.3404    5.5138 C.ar    1  UNL1        0.0447
     29 C          17.2386   35.4287    4.4032 C.ar    1  UNL1        0.1766
     30 C          18.5770   35.6168    4.5210 C.ar    1  UNL1        0.1764
     31 C          18.1021   35.4947    2.2962 C.3     1  UNL1        0.4294
     32 C          19.2011   35.7325    5.7593 C.ar    1  UNL1        0.0403
     33 C          18.3896   35.6480    6.9051 C.ar    1  UNL1        0.0078
@<TRIPOS>BOND
     1    22    23   am
     2    22    27    1
     3     2     3   ar
     4     6     5    1
     5     6     7    1
     6     7     8    1
     7     8    11    1
     8    12    11    1
     9    12    13    1
    10    14    15    1
    11    16    17   ar
    12    18    19   ar
    13    20    15   ar
    14     9    11    1
    15     9    10    1
    16    10     6    1
    17    28    29   ar
    18    29    26    1
    19    30    25    1
    20    30    32   ar
    21    31    25    1
    22    31    26    1
    23    33    27   ar
    24    23     1    1
    25     5     4   ar
    26     5     1   ar
    27    22    21    2
    28     1     2   ar
    29     3     4   ar
    30    13    14    2
    31    15    16   ar
    32    17    18   ar
    33    19    20   ar
    34    27    28   ar
    35    29    30   ar
    36    32    33   ar
    37    23    24    1
@<TRIPOS>MOLECULE
MolPort-005-154-018 15066060 CSSS00160034953 PubChem-26395851 ZINC000015066060
 33 37 0 0 0
SMALL
GASTEIGER

@<TRIPOS>ATOM
      1 C           9.9210   40.6945   10.2829 C.ar    1  UNL1        0.1328
      2 C           9.9894   41.5656   11.3546 C.ar    1  UNL1        0.0565
      3 C           9.0387   42.5322   11.0446 C.ar    1  UNL1        0.1230
      4 N           8.4571   42.2363    9.8626 N.ar    1  UNL1       -0.1666
      5 N           8.9947   41.1168    9.4114 N.ar    1  UNL1       -0.2394
      6 C           8.6634   40.4817    8.1375 C.3     1  UNL1        0.1093
      7 C           9.7546   39.4865    7.7184 C.3     1  UNL1        0.0418
      8 C          10.9853   40.1544    7.0754 C.3     1  UNL1        0.0744
      9 C           9.5130   41.7353    6.0830 C.3     1  UNL1        0.0744
     10 C           8.3501   41.5291    7.0562 C.3     1  UNL1        0.0418
     11 N          10.7799   41.5781    6.7875 N.3     1  UNL1       -0.2688
     12 C          11.8334   41.9916    5.8747 C.3     1  UNL1        0.0989
     13 C          13.1482   42.0041    6.5804 C.2     1  UNL1       -0.0088
     14 C          14.0338   42.9693    6.3467 C.2     1  UNL1       -0.0032
     15 C          15.3356   43.0353    7.0245 C.ar    1  UNL1       -0.0003
     16 C          15.6773   42.0222    7.9271 C.ar    1  UNL1       -0.0000
     17 C          16.9133   42.0472    8.5809 C.ar    1  UNL1       -0.0000
     18 C          17.8139   43.0874    8.3341 C.ar    1  UNL1       -0.0000
     19 C          17.4793   44.1033    7.4343 C.ar    1  UNL1       -0.0000
     20 C          16.2439   44.0784    6.7805 C.ar    1  UNL1       -0.0000
     21 O          12.8234   40.4995   10.3451 O.2     1  UNL1       -0.2698
     22 C          12.1470   39.4586   10.1211 C.2     1  UNL1        0.2506
     23 N          10.7142   39.5164   10.0878 N.am    1  UNL1       -0.2660
     24 H          10.2340   38.6743    9.9162 H       1  UNL1        0.1566
     25 O          14.9358   34.6893    9.1411 O.3     1  UNL1       -0.4346
     26 O          15.8796   36.6259    8.4044 O.3     1  UNL1       -0.4346
     27 C          12.8327   38.1751    9.8916 C.ar    1  UNL1        0.0569
     28 C          14.0729   38.1447    9.2189 C.ar    1  UNL1        0.0447
     29 C          14.6803   36.9066    9.0282 C.ar    1  UNL1        0.1766
     30 C          14.1176   35.7526    9.4668 C.ar    1  UNL1        0.1764
     31 C          16.0837   35.2066    8.4534 C.3     1  UNL1        0.4294
     32 C          12.8969   35.7324   10.1345 C.ar    1  UNL1        0.0403
     33 C          12.2526   36.9648   10.3456 C.ar    1  UNL1        0.0078
@<TRIPOS>BOND
     1    22    23   am
     2    22    27    1
     3     2     3   ar
     4     6     5    1
     5     6     7    1
     6     7     8    1
     7     8    11    1
     8    12    11    1
     9    12    13    1
    10    14    15    1
    11    16    17   ar
    12    18    19   ar
    13    20    15   ar
    14     9    11    1
    15     9    10    1
    16    10     6    1
    17    28    29   ar
    18    29    26    1
    19    30    25    1
    20    30    32   ar
    21    31    25    1
    22    31    26    1
    23    33    27   ar
    24    23     1    1
    25     5     4   ar
    26     5     1   ar
    27    22    21    2
    28     1     2   ar
    29     3     4   ar
    30    13    14    2
    31    15    16   ar
    32    17    18   ar
    33    19    20   ar
    34    27    28   ar
    35    29    30   ar
    36    32    33   ar
    37    23    24    1
@<TRIPOS>MOLECULE
MolPort-005-154-018 15066060 CSSS00160034953 PubChem-26395851 ZINC000015066060
 33 37 0 0 0
SMALL
GASTEIGER

@<TRIPOS>ATOM
      1 C           9.9884   41.4159    7.2322 C.ar    1  UNL1        0.1328
      2 C           8.8517   42.1875    7.3892 C.ar    1  UNL1        0.0565
      3 C           7.8991   41.2723    7.8243 C.ar    1  UNL1        0.1230
      4 N           8.4539   40.0444    7.9118 N.ar    1  UNL1       -0.1666
      5 N           9.7227   40.1430    7.5564 N.ar    1  UNL1       -0.2394
      6 C          10.6609   39.0251    7.4792 C.3     1  UNL1        0.1093
      7 C          10.4719   38.0650    8.6622 C.3     1  UNL1        0.0418
      8 C          11.1416   38.5487    9.9628 C.3     1  UNL1        0.0744
      9 C          12.8976   39.4453    8.6347 C.3     1  UNL1        0.0744
     10 C          12.1085   39.5206    7.3257 C.3     1  UNL1        0.0418
     11 N          12.0115   39.7126    9.7613 N.3     1  UNL1       -0.2688
     12 C          12.8468   39.8388   10.9446 C.3     1  UNL1        0.0989
     13 C          14.2819   39.6488   10.5822 C.2     1  UNL1       -0.0088
     14 C          15.0627   38.8476   11.3026 C.2     1  UNL1       -0.0032
     15 C          16.4772   38.6156   10.9805 C.ar    1  UNL1       -0.0003
     16 C          17.0428   37.3728   11.2862 C.ar    1  UNL1       -0.0000
     17 C          18.3830   37.1138   10.9825 C.ar    1  UNL1       -0.0000
     18 C          19.1643   38.0983   10.3708 C.ar    1  UNL1       -0.0000
     19 C          18.6066   39.3425   10.0631 C.ar    1  UNL1       -0.0000
     20 C          17.2668   39.6017   10.3665 C.ar    1  UNL1       -0.0000
     21 O          11.9687   42.9047    8.7578 O.2     1  UNL1       -0.2698
     22 C          12.2219   42.6046    7.5590 C.2     1  UNL1        0.2506
     23 N          11.2710   41.8672    6.7784 N.am    1  UNL1       -0.2660
     24 H          11.5209   41.6525    5.8506 H       1  UNL1        0.1566
     25 O          17.2111   44.0686    5.4496 O.3     1  UNL1       -0.4346
     26 O          17.1962   42.9907    7.4551 O.3     1  UNL1       -0.4346
     27 C          13.5022   43.0144    6.9564 C.ar    1  UNL1        0.0569
     28 C          14.7175   42.7381    7.6183 C.ar    1  UNL1        0.0447
     29 C          15.8998   43.1453    7.0062 C.ar    1  UNL1        0.1766
     30 C          15.9085   43.7880    5.8114 C.ar    1  UNL1        0.1764
     31 C          18.0751   43.5730    6.4821 C.3     1  UNL1        0.4294
     32 C          14.7363   44.0823    5.1216 C.ar    1  UNL1        0.0403
     33 C          13.5212   43.6865    5.7092 C.ar    1  UNL1        0.0078
@<TRIPOS>BOND
     1    22    23   am
     2    22    27    1
     3     2     3   ar
     4     6     5    1
     5     6     7    1
     6     7     8    1
     7     8    11    1
     8    12    11    1
     9    12    13    1
    10    14    15    1
    11    16    17   ar
    12    18    19   ar
    13    20    15   ar
    14     9    11    1
    15     9    10    1
    16    10     6    1
    17    28    29   ar
    18    29    26    1
    19    30    25    1
    20    30    32   ar
    21    31    25    1
    22    31    26    1
    23    33    27   ar
    24    23     1    1
    25     5     4   ar
    26     5     1   ar
    27    22    21    2
    28     1     2   ar
    29     3     4   ar
    30    13    14    2
    31    15    16   ar
    32    17    18   ar
    33    19    20   ar
    34    27    28   ar
    35    29    30   ar
    36    32    33   ar
    37    23    24    1
@<TRIPOS>MOLECULE
MolPort-005-154-018 15066060 CSSS00160034953 PubChem-26395851 ZINC000015066060
 33 37 0 0 0
SMALL
GASTEIGER

@<TRIPOS>ATOM
      1 C           9.8251   41.4120    6.2442 C.ar    1  UNL1        0.1328
      2 C           9.5167   40.2885    5.4994 C.ar    1  UNL1        0.0565
      3 C           8.2328   39.9634    5.9241 C.ar    1  UNL1        0.1230
      4 N           7.8255   40.8471    6.8602 N.ar    1  UNL1       -0.1666
      5 N           8.7957   41.7252    7.0431 N.ar    1  UNL1       -0.2394
      6 C           8.7615   42.8240    8.0061 C.3     1  UNL1        0.1093
      7 C          10.1617   43.1071    8.5683 C.3     1  UNL1        0.0418
      8 C          10.5883   42.1322    9.6825 C.3     1  UNL1        0.0744
      9 C           8.3268   42.1005   10.4148 C.3     1  UNL1        0.0744
     10 C           7.7081   42.5764    9.0985 C.3     1  UNL1        0.0418
     11 N           9.4933   41.2699   10.1400 N.3     1  UNL1       -0.2688
     12 C           9.9065   40.6783   11.4022 C.3     1  UNL1        0.0989
     13 C          11.3938   40.5683   11.4548 C.2     1  UNL1       -0.0088
     14 C          12.0269   39.6101   10.7827 C.2     1  UNL1       -0.0032
     15 C          13.4890   39.4666   10.7900 C.ar    1  UNL1       -0.0003
     16 C          14.0955   38.8024   11.8619 C.ar    1  UNL1       -0.0000
     17 C          15.4837   38.6373   11.8951 C.ar    1  UNL1       -0.0000
     18 C          16.2723   39.1367   10.8546 C.ar    1  UNL1       -0.0000
     19 C          15.6738   39.8019    9.7808 C.ar    1  UNL1       -0.0000
     20 C          14.2860   39.9670    9.7474 C.ar    1  UNL1       -0.0000
     21 O          12.4822   40.4326    6.9124 O.2     1  UNL1       -0.2698
     22 C          12.3482   41.6335    6.5504 C.2     1  UNL1        0.2506
     23 N          11.0541   42.1492    6.2089 N.am    1  UNL1       -0.2660
     24 H          11.0056   43.0908    5.9257 H       1  UNL1        0.1566
     25 O          16.9534   44.8368    6.4287 O.3     1  UNL1       -0.4346
     26 O          16.9868   43.0037    7.7787 O.3     1  UNL1       -0.4346
     27 C          13.5282   42.5125    6.4782 C.ar    1  UNL1        0.0569
     28 C          14.6781   42.2190    7.2416 C.ar    1  UNL1        0.0447
     29 C          15.7668   43.0804    7.1370 C.ar    1  UNL1        0.1766
     30 C          15.7466   44.1730    6.3329 C.ar    1  UNL1        0.1764
     31 C          17.7836   44.1178    7.3518 C.3     1  UNL1        0.4294
     32 C          14.6362   44.5031    5.5620 C.ar    1  UNL1        0.0403
     33 C          13.5162   43.6559    5.6416 C.ar    1  UNL1        0.0078
@<TRIPOS>BOND
     1    22    23   am
     2    22    27    1
     3     2     3   ar
     4     6     5    1
     5     6     7    1
     6     7     8    1
     7     8    11    1
     8    12    11    1
     9    12    13    1
    10    14    15    1
    11    16    17   ar
    12    18    19   ar
    13    20    15   ar
    14     9    11    1
    15     9    10    1
    16    10     6    1
    17    28    29   ar
    18    29    26    1
    19    30    25    1
    20    30    32   ar
    21    31    25    1
    22    31    26    1
    23    33    27   ar
    24    23     1    1
    25     5     4   ar
    26     5     1   ar
    27    22    21    2
    28     1     2   ar
    29     3     4   ar
    30    13    14    2
    31    15    16   ar
    32    17    18   ar
    33    19    20   ar
    34    27    28   ar
    35    29    30   ar
    36    32    33   ar
    37    23    24    1
@<TRIPOS>MOLECULE
MolPort-005-154-018 15066060 CSSS00160034953 PubChem-26395851 ZINC000015066060
 33 37 0 0 0
SMALL
GASTEIGER

@<TRIPOS>ATOM
      1 C           8.7268   40.7312    6.9049 C.ar    1  UNL1        0.1328
      2 C           8.3922   39.6282    6.1409 C.ar    1  UNL1        0.0565
      3 C           7.0269   39.4846    6.3639 C.ar    1  UNL1        0.1230
      4 N           6.5996   40.4477    7.2082 N.ar    1  UNL1       -0.1666
      5 N           7.6367   41.2023    7.5260 N.ar    1  UNL1       -0.2394
      6 C           7.5989   42.3324    8.4518 C.3     1  UNL1        0.1093
      7 C           8.9615   43.0366    8.5169 C.3     1  UNL1        0.0418
      8 C           9.9841   42.3201    9.4195 C.3     1  UNL1        0.0744
      9 C           8.1873   41.7387   10.8634 C.3     1  UNL1        0.0744
     10 C           7.0698   41.9066    9.8314 C.3     1  UNL1        0.0418
     11 N           9.3906   41.2367   10.2107 N.3     1  UNL1       -0.2688
     12 C          10.3385   40.8970   11.2595 C.3     1  UNL1        0.0989
     13 C          11.5219   40.2003   10.6756 C.2     1  UNL1       -0.0088
     14 C          12.5139   39.7791   11.4561 C.2     1  UNL1       -0.0032
     15 C          13.6935   39.0764   10.9335 C.ar    1  UNL1       -0.0003
     16 C          14.7803   38.8574   11.7873 C.ar    1  UNL1       -0.0000
     17 C          15.9144   38.1814   11.3264 C.ar    1  UNL1       -0.0000
     18 C          15.9662   37.7208   10.0076 C.ar    1  UNL1       -0.0000
     19 C          14.8847   37.9364    9.1487 C.ar    1  UNL1       -0.0000
     20 C          13.7509   38.6121    9.6092 C.ar    1  UNL1       -0.0000
     21 O          10.9547   40.5250    5.0450 O.2     1  UNL1       -0.2698
     22 C          11.1103   41.1784    6.1127 C.2     1  UNL1        0.2506
     23 N          10.0323   41.3050    7.0504 N.am    1  UNL1       -0.2660
     24 H          10.2039   41.8316    7.8644 H       1  UNL1        0.1566
     25 O          15.9997   43.7702    7.0403 O.3     1  UNL1       -0.4346
     26 O          14.6291   44.6547    5.4519 O.3     1  UNL1       -0.4346
     27 C          12.4074   41.8153    6.3990 C.ar    1  UNL1        0.0569
     28 C          12.7998   42.9724    5.6930 C.ar    1  UNL1        0.0447
     29 C          14.0346   43.5365    6.0018 C.ar    1  UNL1        0.1766
     30 C          14.8515   43.0090    6.9479 C.ar    1  UNL1        0.1764
     31 C          15.8994   44.8420    6.0919 C.3     1  UNL1        0.4294
     32 C          14.5080   41.8700    7.6696 C.ar    1  UNL1        0.0403
     33 C          13.2673   41.2714    7.3850 C.ar    1  UNL1        0.0078
@<TRIPOS>BOND
     1    22    23   am
     2    22    27    1
     3     2     3   ar
     4     6     5    1
     5     6     7    1
     6     7     8    1
     7     8    11    1
     8    12    11    1
     9    12    13    1
    10    14    15    1
    11    16    17   ar
    12    18    19   ar
    13    20    15   ar
    14     9    11    1
    15     9    10    1
    16    10     6    1
    17    28    29   ar
    18    29    26    1
    19    30    25    1
    20    30    32   ar
    21    31    25    1
    22    31    26    1
    23    33    27   ar
    24    23     1    1
    25     5     4   ar
    26     5     1   ar
    27    22    21    2
    28     1     2   ar
    29     3     4   ar
    30    13    14    2
    31    15    16   ar
    32    17    18   ar
    33    19    20   ar
    34    27    28   ar
    35    29    30   ar
    36    32    33   ar
    37    23    24    1
@<TRIPOS>MOLECULE
MolPort-005-154-018 15066060 CSSS00160034953 PubChem-26395851 ZINC000015066060
 33 37 0 0 0
SMALL
GASTEIGER

@<TRIPOS>ATOM
      1 C          13.3558   36.5259    9.0328 C.ar    1  UNL1        0.1328
      2 C          12.9707   35.5661    9.9507 C.ar    1  UNL1        0.0565
      3 C          11.9450   36.1878   10.6550 C.ar    1  UNL1        0.1230
      4 N          11.7511   37.4337   10.1721 N.ar    1  UNL1       -0.1666
      5 N          12.6074   37.6272    9.1846 N.ar    1  UNL1       -0.2394
      6 C          12.7445   38.8682    8.4249 C.3     1  UNL1        0.1093
      7 C          13.5145   39.9244    9.2302 C.3     1  UNL1        0.0418
      8 C          12.6511   40.6514   10.2790 C.3     1  UNL1        0.0744
      9 C          10.8299   40.5231    8.7564 C.3     1  UNL1        0.0744
     10 C          11.3807   39.3667    7.9190 C.3     1  UNL1        0.0418
     11 N          11.2206   40.3527   10.1508 N.3     1  UNL1       -0.2688
     12 C          10.4990   41.3501   10.9242 C.3     1  UNL1        0.0989
     13 C           9.0320   41.0827   10.8650 C.2     1  UNL1       -0.0088
     14 C           8.1930   42.0056   10.4016 C.2     1  UNL1       -0.0032
     15 C           6.7430   41.7877   10.3094 C.ar    1  UNL1       -0.0003
     16 C           6.0745   41.2304   11.4051 C.ar    1  UNL1       -0.0000
     17 C           4.6928   41.0203   11.3562 C.ar    1  UNL1       -0.0000
     18 C           3.9729   41.3673   10.2093 C.ar    1  UNL1       -0.0000
     19 C           4.6339   41.9238    9.1106 C.ar    1  UNL1       -0.0000
     20 C           6.0151   42.1340    9.1593 C.ar    1  UNL1       -0.0000
     21 O          15.6770   34.7758    9.1550 O.2     1  UNL1       -0.2698
     22 C          15.5369   35.5340    8.1566 C.2     1  UNL1        0.2506
     23 N          14.4025   36.4065    8.0606 N.am    1  UNL1       -0.2660
     24 H          14.3371   36.9724    7.2576 H       1  UNL1        0.1566
     25 O          19.1998   35.4788    3.9064 O.3     1  UNL1       -0.4346
     26 O          16.9893   35.3099    3.3876 O.3     1  UNL1       -0.4346
     27 C          16.5450   35.5240    7.0824 C.ar    1  UNL1        0.0569
     28 C          16.1428   35.4125    5.7344 C.ar    1  UNL1        0.0447
     29 C          17.1343   35.4089    4.7571 C.ar    1  UNL1        0.1766
     30 C          18.4515   35.5091    5.0663 C.ar    1  UNL1        0.1764
     31 C          18.2970   35.3498    2.7989 C.3     1  UNL1        0.4294
     32 C          18.8960   35.6209    6.3802 C.ar    1  UNL1        0.0403
     33 C          17.9228   35.6278    7.3958 C.ar    1  UNL1        0.0078
@<TRIPOS>BOND
     1    22    23   am
     2    22    27    1
     3     2     3   ar
     4     6     5    1
     5     6     7    1
     6     7     8    1
     7     8    11    1
     8    12    11    1
     9    12    13    1
    10    14    15    1
    11    16    17   ar
    12    18    19   ar
    13    20    15   ar
    14     9    11    1
    15     9    10    1
    16    10     6    1
    17    28    29   ar
    18    29    26    1
    19    30    25    1
    20    30    32   ar
    21    31    25    1
    22    31    26    1
    23    33    27   ar
    24    23     1    1
    25     5     4   ar
    26     5     1   ar
    27    22    21    2
    28     1     2   ar
    29     3     4   ar
    30    13    14    2
    31    15    16   ar
    32    17    18   ar
    33    19    20   ar
    34    27    28   ar
    35    29    30   ar
    36    32    33   ar
    37    23    24    1
