@<TRIPOS>MOLECULE
MolPort-010-852-387 ChemDiv-G952-3417 MCULE-2399946296 PubChem-53095823 ZINC000064980503
 30 34 0 0 0
SMALL
GASTEIGER

@<TRIPOS>ATOM
      1 N          10.6546   40.9810    8.0343 N.am    1  UNL1       -0.2613
      2 C          11.6259   41.9435    7.6086 C.2     1  UNL1        0.2483
      3 O          11.8007   43.0196    8.2381 O.2     1  UNL1       -0.2728
      4 H          10.5784   40.1600    7.4963 H       1  UNL1        0.1568
      5 N           7.8950   41.3991   10.2178 N.ar    1  UNL1       -0.1881
      6 N           8.4507   41.3427    9.0188 N.ar    1  UNL1       -0.1400
      7 N           8.0149   41.3624   12.4201 N.ar    1  UNL1       -0.1202
      8 N           6.7489   41.6275   12.0717 N.ar    1  UNL1       -0.1310
      9 C           9.7831   41.0947    9.1651 C.ar    1  UNL1        0.1880
     10 C           8.6694   41.2322   11.2540 C.ar    1  UNL1        0.2195
     11 C           6.6824   41.6469   10.7116 C.ar    1  UNL1        0.1639
     12 S          10.2652   40.9637   10.8247 S.2     1  UNL1       -0.0111
     13 C           5.4656   41.9586    9.8941 C.3     1  UNL1        0.0606
     14 C           5.3487   41.0499    8.6657 C.3     1  UNL1        0.0076
     15 C           6.3426   41.4461    7.5741 C.3     1  UNL1        0.0004
     16 C           6.1455   42.9079    7.1881 C.3     1  UNL1        0.0000
     17 C           6.3661   43.8017    8.4039 C.3     1  UNL1        0.0004
     18 C           5.3795   43.4416    9.5146 C.3     1  UNL1        0.0076
     19 C          12.4197   41.6830    6.3747 C.3     1  UNL1        0.1866
     20 N          13.8220   42.0049    6.6010 N.am    1  UNL1       -0.2136
     21 C          14.5067   43.1674    6.1306 C.2     1  UNL1        0.2555
     22 C          15.7592   43.3357    6.8574 C.ar    1  UNL1        0.0584
     23 C          15.8451   42.3171    7.7846 C.ar    1  UNL1        0.0584
     24 C          16.9287   42.2083    8.6540 C.ar    1  UNL1        0.0047
     25 C          17.9457   43.1748    8.5551 C.ar    1  UNL1        0.0001
     26 C          17.8573   44.2172    7.6074 C.ar    1  UNL1        0.0001
     27 C          16.7511   44.3078    6.7438 C.ar    1  UNL1        0.0047
     28 C          14.6480   41.4956    7.6502 C.2     1  UNL1        0.2555
     29 O          14.0655   43.9383    5.2375 O.2     1  UNL1       -0.2695
     30 O          14.3554   40.4996    8.3637 O.2     1  UNL1       -0.2695
@<TRIPOS>BOND
     1     5     6   ar
     2     7     8   ar
     3     1     2   am
     4    20    21   am
     5     9    12   ar
     6     9     1    1
     7    10    12   ar
     8    10     5   ar
     9    11     5   ar
    10    13    11    1
    11    13    14    1
    12    14    15    1
    13    15    16    1
    14    16    17    1
    15    17    18    1
    16    18    13    1
    17    19     2    1
    18    19    20    1
    19    21    22    1
    20    23    24   ar
    21    23    28    1
    22    25    26   ar
    23    27    22   ar
    24    28    20   am
    25     9     6   ar
    26    10     7   ar
    27    11     8   ar
    28     2     3    2
    29    21    29    2
    30    22    23   ar
    31    24    25   ar
    32    26    27   ar
    33    28    30    2
    34     1     4    1
@<TRIPOS>MOLECULE
MolPort-010-852-387 ChemDiv-G952-3417 MCULE-2399946296 PubChem-53095823 ZINC000064980503
 30 34 0 0 0
SMALL
GASTEIGER

@<TRIPOS>ATOM
      1 N          10.9188   41.2731    8.1999 N.am    1  UNL1       -0.2613
      2 C          10.8218   41.4750    6.7854 C.2     1  UNL1        0.2483
      3 O           9.7182   41.7259    6.2341 O.2     1  UNL1       -0.2728
      4 H          11.8157   41.0874    8.5610 H       1  UNL1        0.1568
      5 N           7.7620   41.3055    9.8098 N.ar    1  UNL1       -0.1881
      6 N           8.5391   41.2415    8.7412 N.ar    1  UNL1       -0.1400
      7 N           7.4585   41.5412   11.9818 N.ar    1  UNL1       -0.1202
      8 N           6.2569   41.4771   11.3932 N.ar    1  UNL1       -0.1310
      9 C           9.8401   41.3146    9.1412 C.ar    1  UNL1        0.1880
     10 C           8.3387   41.4314   10.9728 C.ar    1  UNL1        0.2195
     11 C           6.4522   41.3301   10.0535 C.ar    1  UNL1        0.1639
     12 S          10.0084   41.4794   10.8583 S.2     1  UNL1       -0.0111
     13 C           5.3793   41.2700    9.0088 C.3     1  UNL1        0.0606
     14 C           5.6435   42.2435    7.8552 C.3     1  UNL1        0.0076
     15 C           5.3505   43.6887    8.2581 C.3     1  UNL1        0.0004
     16 C           3.9154   43.8154    8.7570 C.3     1  UNL1        0.0000
     17 C           3.7035   42.9133    9.9682 C.3     1  UNL1        0.0004
     18 C           3.9764   41.4551    9.5992 C.3     1  UNL1        0.0076
     19 C          12.0454   41.3489    5.9444 C.3     1  UNL1        0.1866
     20 N          13.1905   41.9306    6.6312 N.am    1  UNL1       -0.2136
     21 C          13.9509   41.3150    7.6726 C.2     1  UNL1        0.2555
     22 C          15.2194   42.0132    7.8420 C.ar    1  UNL1        0.0584
     23 C          15.2670   43.0273    6.9073 C.ar    1  UNL1        0.0584
     24 C          16.3690   43.8738    6.8013 C.ar    1  UNL1        0.0047
     25 C          17.4412   43.6650    7.6872 C.ar    1  UNL1        0.0001
     26 C          17.3928   42.6271    8.6426 C.ar    1  UNL1        0.0001
     27 C          16.2710   41.7831    8.7269 C.ar    1  UNL1        0.0047
     28 C          14.0279   42.9794    6.1403 C.2     1  UNL1        0.2555
     29 O          13.5771   40.3014    8.3202 O.2     1  UNL1       -0.2695
     30 O          13.7355   43.7245    5.1676 O.2     1  UNL1       -0.2695
@<TRIPOS>BOND
     1     5     6   ar
     2     7     8   ar
     3     1     2   am
     4    20    21   am
     5     9    12   ar
     6     9     1    1
     7    10    12   ar
     8    10     5   ar
     9    11     5   ar
    10    13    11    1
    11    13    14    1
    12    14    15    1
    13    15    16    1
    14    16    17    1
    15    17    18    1
    16    18    13    1
    17    19     2    1
    18    19    20    1
    19    21    22    1
    20    23    24   ar
    21    23    28    1
    22    25    26   ar
    23    27    22   ar
    24    28    20   am
    25     9     6   ar
    26    10     7   ar
    27    11     8   ar
    28     2     3    2
    29    21    29    2
    30    22    23   ar
    31    24    25   ar
    32    26    27   ar
    33    28    30    2
    34     1     4    1
@<TRIPOS>MOLECULE
MolPort-010-852-387 ChemDiv-G952-3417 MCULE-2399946296 PubChem-53095823 ZINC000064980503
 30 34 0 0 0
SMALL
GASTEIGER

@<TRIPOS>ATOM
      1 N           8.6422   42.3088    6.4168 N.am    1  UNL1       -0.2613
      2 C           9.8348   41.9152    7.1051 C.2     1  UNL1        0.2483
      3 O           9.9383   42.0315    8.3543 O.2     1  UNL1       -0.2728
      4 H           8.6313   42.1825    5.4405 H       1  UNL1        0.1568
      5 N           5.5744   42.8629    8.1019 N.ar    1  UNL1       -0.1881
      6 N           6.5552   42.0912    7.6634 N.ar    1  UNL1       -0.1400
      7 N           4.5703   44.8189    8.2790 N.ar    1  UNL1       -0.1202
      8 N           3.7940   43.8932    8.8577 N.ar    1  UNL1       -0.1310
      9 C           7.4637   42.8679    7.0083 C.ar    1  UNL1        0.1880
     10 C           5.6406   44.1381    7.8362 C.ar    1  UNL1        0.2195
     11 C           4.4208   42.6893    8.7459 C.ar    1  UNL1        0.1639
     12 S           7.0140   44.5412    6.9677 S.2     1  UNL1       -0.0111
     13 C           3.8819   41.3699    9.2093 C.3     1  UNL1        0.0606
     14 C           2.4931   41.5054    9.8428 C.3     1  UNL1        0.0076
     15 C           2.5685   42.1132   11.2433 C.3     1  UNL1        0.0004
     16 C           3.4898   41.2817   12.1290 C.3     1  UNL1        0.0000
     17 C           4.8924   41.2446   11.5314 C.3     1  UNL1        0.0004
     18 C           4.8580   40.6304   10.1320 C.3     1  UNL1        0.0076
     19 C          10.9903   41.3922    6.3229 C.3     1  UNL1        0.1866
     20 N          12.2379   41.6698    7.0214 N.am    1  UNL1       -0.2136
     21 C          12.9013   40.7994    7.9401 C.2     1  UNL1        0.2555
     22 C          14.2783   41.2370    8.1344 C.ar    1  UNL1        0.0584
     23 C          14.4836   42.3412    7.3326 C.ar    1  UNL1        0.0584
     24 C          15.7165   42.9888    7.2805 C.ar    1  UNL1        0.0047
     25 C          16.7556   42.4815    8.0809 C.ar    1  UNL1        0.0001
     26 C          16.5459   41.3515    8.9004 C.ar    1  UNL1        0.0001
     27 C          15.2934   40.7127    8.9323 C.ar    1  UNL1        0.0047
     28 C          13.2372   42.6116    6.6258 C.2     1  UNL1        0.2555
     29 O          12.3682   39.7904    8.4731 O.2     1  UNL1       -0.2695
     30 O          13.0590   43.5176    5.7690 O.2     1  UNL1       -0.2695
@<TRIPOS>BOND
     1     5     6   ar
     2     7     8   ar
     3     1     2   am
     4    20    21   am
     5     9    12   ar
     6     9     1    1
     7    10    12   ar
     8    10     5   ar
     9    11     5   ar
    10    13    11    1
    11    13    14    1
    12    14    15    1
    13    15    16    1
    14    16    17    1
    15    17    18    1
    16    18    13    1
    17    19     2    1
    18    19    20    1
    19    21    22    1
    20    23    24   ar
    21    23    28    1
    22    25    26   ar
    23    27    22   ar
    24    28    20   am
    25     9     6   ar
    26    10     7   ar
    27    11     8   ar
    28     2     3    2
    29    21    29    2
    30    22    23   ar
    31    24    25   ar
    32    26    27   ar
    33    28    30    2
    34     1     4    1
@<TRIPOS>MOLECULE
MolPort-010-852-387 ChemDiv-G952-3417 MCULE-2399946296 PubChem-53095823 ZINC000064980503
 30 34 0 0 0
SMALL
GASTEIGER

@<TRIPOS>ATOM
      1 N          11.2160   41.0527   11.0606 N.am    1  UNL1       -0.2613
      2 C          12.1849   40.3264   10.2958 C.2     1  UNL1        0.2483
      3 O          12.1443   40.3062    9.0377 O.2     1  UNL1       -0.2728
      4 H          11.3150   41.0282   12.0398 H       1  UNL1        0.1568
      5 N           8.0523   42.2002    9.9506 N.ar    1  UNL1       -0.1881
      6 N           8.8604   41.2892   10.4671 N.ar    1  UNL1       -0.1400
      7 N           7.6745   44.1796    9.0534 N.ar    1  UNL1       -0.1202
      8 N           6.5279   43.4870    9.0434 N.ar    1  UNL1       -0.1310
      9 C          10.1174   41.8111   10.5418 C.ar    1  UNL1        0.1880
     10 C           8.5690   43.3501    9.6164 C.ar    1  UNL1        0.2195
     11 C           6.7685   42.2675    9.6000 C.ar    1  UNL1        0.1639
     12 S          10.2110   43.4312    9.9333 S.2     1  UNL1       -0.0111
     13 C           5.7764   41.1531    9.7410 C.3     1  UNL1        0.0606
     14 C           4.6233   41.2782    8.7395 C.3     1  UNL1        0.0076
     15 C           3.6412   42.3774    9.1442 C.3     1  UNL1        0.0004
     16 C           3.1124   42.1189   10.5507 C.3     1  UNL1        0.0000
     17 C           4.2677   42.0992   11.5459 C.3     1  UNL1        0.0004
     18 C           5.2667   41.0017   11.1791 C.3     1  UNL1        0.0076
     19 C          13.2402   39.5486   11.0042 C.3     1  UNL1        0.1866
     20 N          13.6770   38.4284   10.1822 N.am    1  UNL1       -0.2136
     21 C          14.9539   38.2896    9.5563 C.2     1  UNL1        0.2555
     22 C          15.1619   36.9045    9.1515 C.ar    1  UNL1        0.0584
     23 C          14.0517   36.1834    9.5412 C.ar    1  UNL1        0.0584
     24 C          13.9510   34.8128    9.3101 C.ar    1  UNL1        0.0047
     25 C          15.0236   34.1797    8.6569 C.ar    1  UNL1        0.0001
     26 C          16.1595   34.9171    8.2591 C.ar    1  UNL1        0.0001
     27 C          16.2392   36.2990    8.5077 C.ar    1  UNL1        0.0047
     28 C          13.1320   37.1074   10.1943 C.2     1  UNL1        0.2555
     29 O          15.7782   39.2304    9.4088 O.2     1  UNL1       -0.2695
     30 O          12.0306   36.7989   10.7222 O.2     1  UNL1       -0.2695
@<TRIPOS>BOND
     1     5     6   ar
     2     7     8   ar
     3     1     2   am
     4    20    21   am
     5     9    12   ar
     6     9     1    1
     7    10    12   ar
     8    10     5   ar
     9    11     5   ar
    10    13    11    1
    11    13    14    1
    12    14    15    1
    13    15    16    1
    14    16    17    1
    15    17    18    1
    16    18    13    1
    17    19     2    1
    18    19    20    1
    19    21    22    1
    20    23    24   ar
    21    23    28    1
    22    25    26   ar
    23    27    22   ar
    24    28    20   am
    25     9     6   ar
    26    10     7   ar
    27    11     8   ar
    28     2     3    2
    29    21    29    2
    30    22    23   ar
    31    24    25   ar
    32    26    27   ar
    33    28    30    2
    34     1     4    1
@<TRIPOS>MOLECULE
MolPort-010-852-387 ChemDiv-G952-3417 MCULE-2399946296 PubChem-53095823 ZINC000064980503
 30 34 0 0 0
SMALL
GASTEIGER

@<TRIPOS>ATOM
      1 N          10.7947   41.3759    9.3735 N.am    1  UNL1       -0.2613
      2 C          11.2366   40.3645    8.4610 C.2     1  UNL1        0.2483
      3 O          10.5230   40.0026    7.4891 O.2     1  UNL1       -0.2728
      4 H          11.4090   41.6118   10.1057 H       1  UNL1        0.1568
      5 N           7.3820   42.3280    9.4467 N.ar    1  UNL1       -0.1881
      6 N           8.3618   41.4462    9.5567 N.ar    1  UNL1       -0.1400
      7 N           6.6302   44.3543    9.0056 N.ar    1  UNL1       -0.1202
      8 N           5.5795   43.5568    9.2388 N.ar    1  UNL1       -0.1310
      9 C           9.5473   42.0783    9.3261 C.ar    1  UNL1        0.1880
     10 C           7.7018   43.5560    9.1454 C.ar    1  UNL1        0.2195
     11 C           6.0512   42.3088    9.5118 C.ar    1  UNL1        0.1639
     12 S           9.3533   43.7617    8.9626 S.2     1  UNL1       -0.0111
     13 C           5.2183   41.0918    9.7790 C.3     1  UNL1        0.0606
     14 C           3.9555   41.0564    8.9116 C.3     1  UNL1        0.0076
     15 C           2.9016   42.0457    9.4086 C.3     1  UNL1        0.0004
     16 C           2.5645   41.7663   10.8691 C.3     1  UNL1        0.0000
     17 C           3.8165   41.9066   11.7284 C.3     1  UNL1        0.0004
     18 C           4.8910   40.9218   11.2672 C.3     1  UNL1        0.0076
     19 C          12.5514   39.7008    8.6877 C.3     1  UNL1        0.1866
     20 N          13.6292   40.6767    8.6029 N.am    1  UNL1       -0.2136
     21 C          14.9232   40.5574    9.1970 C.2     1  UNL1        0.2555
     22 C          15.8388   41.5175    8.5925 C.ar    1  UNL1        0.0584
     23 C          15.1422   42.2047    7.6195 C.ar    1  UNL1        0.0584
     24 C          15.7492   43.1897    6.8427 C.ar    1  UNL1        0.0047
     25 C          17.1061   43.4692    7.0849 C.ar    1  UNL1        0.0001
     26 C          17.8189   42.7656    8.0795 C.ar    1  UNL1        0.0001
     27 C          17.1848   41.7726    8.8475 C.ar    1  UNL1        0.0047
     28 C          13.7797   41.6856    7.6020 C.2     1  UNL1        0.2555
     29 O          15.2193   39.7211   10.0911 O.2     1  UNL1       -0.2695
     30 O          12.8672   42.0411    6.8098 O.2     1  UNL1       -0.2695
@<TRIPOS>BOND
     1     5     6   ar
     2     7     8   ar
     3     1     2   am
     4    20    21   am
     5     9    12   ar
     6     9     1    1
     7    10    12   ar
     8    10     5   ar
     9    11     5   ar
    10    13    11    1
    11    13    14    1
    12    14    15    1
    13    15    16    1
    14    16    17    1
    15    17    18    1
    16    18    13    1
    17    19     2    1
    18    19    20    1
    19    21    22    1
    20    23    24   ar
    21    23    28    1
    22    25    26   ar
    23    27    22   ar
    24    28    20   am
    25     9     6   ar
    26    10     7   ar
    27    11     8   ar
    28     2     3    2
    29    21    29    2
    30    22    23   ar
    31    24    25   ar
    32    26    27   ar
    33    28    30    2
    34     1     4    1
@<TRIPOS>MOLECULE
MolPort-010-852-387 ChemDiv-G952-3417 MCULE-2399946296 PubChem-53095823 ZINC000064980503
 30 34 0 0 0
SMALL
GASTEIGER

@<TRIPOS>ATOM
      1 N          10.1451   40.8799    8.4797 N.am    1  UNL1       -0.2613
      2 C          11.2569   40.6763    9.3592 C.2     1  UNL1        0.2483
      3 O          11.3899   41.3516   10.4134 O.2     1  UNL1       -0.2728
      4 H          10.1040   40.3105    7.6777 H       1  UNL1        0.1568
      5 N           7.0312   42.5137    8.9180 N.ar    1  UNL1       -0.1881
      6 N           7.7876   41.4379    8.7759 N.ar    1  UNL1       -0.1400
      7 N           6.7572   44.7009    8.9991 N.ar    1  UNL1       -0.1202
      8 N           5.5519   44.1222    9.0814 N.ar    1  UNL1       -0.1310
      9 C           9.0872   41.8299    8.6516 C.ar    1  UNL1        0.1880
     10 C           7.6213   43.6768    8.9017 C.ar    1  UNL1        0.2195
     11 C           5.7291   42.7728    9.0324 C.ar    1  UNL1        0.1639
     12 S           9.2790   43.5516    8.7037 S.2     1  UNL1       -0.0111
     13 C           4.6420   41.7413    9.0397 C.3     1  UNL1        0.0606
     14 C           3.2726   42.3499    9.3604 C.3     1  UNL1        0.0076
     15 C           3.1393   42.6884   10.8451 C.3     1  UNL1        0.0004
     16 C           3.3931   41.4468   11.6929 C.3     1  UNL1        0.0000
     17 C           4.7992   40.9169   11.4323 C.3     1  UNL1        0.0004
     18 C           4.9661   40.5557    9.9563 C.3     1  UNL1        0.0076
     19 C          12.2969   39.6711    9.0007 C.3     1  UNL1        0.1866
     20 N          13.4920   40.3388    8.5034 N.am    1  UNL1       -0.2136
     21 C          13.5326   41.3648    7.5097 C.2     1  UNL1        0.2555
     22 C          14.8218   42.0445    7.5486 C.ar    1  UNL1        0.0584
     23 C          15.5637   41.4769    8.5643 C.ar    1  UNL1        0.0584
     24 C          16.8487   41.9220    8.8688 C.ar    1  UNL1        0.0047
     25 C          17.3750   42.9752    8.0996 C.ar    1  UNL1        0.0001
     26 C          16.6157   43.5564    7.0612 C.ar    1  UNL1        0.0001
     27 C          15.3192   43.0922    6.7761 C.ar    1  UNL1        0.0047
     28 C          14.7499   40.4323    9.1750 C.2     1  UNL1        0.2555
     29 O          12.5760   41.6458    6.7401 O.2     1  UNL1       -0.2695
     30 O          15.0794   39.7281   10.1661 O.2     1  UNL1       -0.2695
@<TRIPOS>BOND
     1     5     6   ar
     2     7     8   ar
     3     1     2   am
     4    20    21   am
     5     9    12   ar
     6     9     1    1
     7    10    12   ar
     8    10     5   ar
     9    11     5   ar
    10    13    11    1
    11    13    14    1
    12    14    15    1
    13    15    16    1
    14    16    17    1
    15    17    18    1
    16    18    13    1
    17    19     2    1
    18    19    20    1
    19    21    22    1
    20    23    24   ar
    21    23    28    1
    22    25    26   ar
    23    27    22   ar
    24    28    20   am
    25     9     6   ar
    26    10     7   ar
    27    11     8   ar
    28     2     3    2
    29    21    29    2
    30    22    23   ar
    31    24    25   ar
    32    26    27   ar
    33    28    30    2
    34     1     4    1
@<TRIPOS>MOLECULE
MolPort-010-852-387 ChemDiv-G952-3417 MCULE-2399946296 PubChem-53095823 ZINC000064980503
 30 34 0 0 0
SMALL
GASTEIGER

@<TRIPOS>ATOM
      1 N          12.0075   40.8525   10.2587 N.am    1  UNL1       -0.2613
      2 C          12.5313   39.6478    9.6881 C.2     1  UNL1        0.2483
      3 O          11.7937   38.6504    9.4736 O.2     1  UNL1       -0.2728
      4 H          12.6424   41.5930   10.3914 H       1  UNL1        0.1568
      5 N           8.5144   41.4375   10.3788 N.ar    1  UNL1       -0.1881
      6 N           9.6532   41.2313    9.7381 N.ar    1  UNL1       -0.1400
      7 N           7.3518   41.7439   12.2281 N.ar    1  UNL1       -0.1202
      8 N           6.5244   41.8788   11.1834 N.ar    1  UNL1       -0.1310
      9 C          10.6512   41.0864   10.6552 C.ar    1  UNL1        0.1880
     10 C           8.5497   41.4757   11.6820 C.ar    1  UNL1        0.2195
     11 C           7.2484   41.6868   10.0460 C.ar    1  UNL1        0.1639
     12 S          10.0920   41.2381   12.2886 S.2     1  UNL1       -0.0111
     13 C           6.7314   41.7990    8.6438 C.3     1  UNL1        0.0606
     14 C           7.3513   42.9832    7.8944 C.3     1  UNL1        0.0076
     15 C           6.7606   44.3151    8.3567 C.3     1  UNL1        0.0004
     16 C           5.2447   44.3036    8.1937 C.3     1  UNL1        0.0000
     17 C           4.6399   43.1797    9.0285 C.3     1  UNL1        0.0004
     18 C           5.1996   41.8279    8.5854 C.3     1  UNL1        0.0076
     19 C          13.9858   39.5600    9.3765 C.3     1  UNL1        0.1866
     20 N          14.3512   40.5683    8.3910 N.am    1  UNL1       -0.2136
     21 C          13.4556   41.2510    7.5115 C.2     1  UNL1        0.2555
     22 C          14.1064   42.4316    6.9566 C.ar    1  UNL1        0.0584
     23 C          15.3733   42.5049    7.4987 C.ar    1  UNL1        0.0584
     24 C          16.2485   43.5403    7.1765 C.ar    1  UNL1        0.0047
     25 C          15.7998   44.5169    6.2694 C.ar    1  UNL1        0.0001
     26 C          14.5036   44.4425    5.7156 C.ar    1  UNL1        0.0001
     27 C          13.6372   43.3897    6.0600 C.ar    1  UNL1        0.0047
     28 C          15.5343   41.3698    8.3998 C.2     1  UNL1        0.2555
     29 O          12.2716   40.8877    7.2821 O.2     1  UNL1       -0.2695
     30 O          16.5471   41.1323    9.1101 O.2     1  UNL1       -0.2695
@<TRIPOS>BOND
     1     5     6   ar
     2     7     8   ar
     3     1     2   am
     4    20    21   am
     5     9    12   ar
     6     9     1    1
     7    10    12   ar
     8    10     5   ar
     9    11     5   ar
    10    13    11    1
    11    13    14    1
    12    14    15    1
    13    15    16    1
    14    16    17    1
    15    17    18    1
    16    18    13    1
    17    19     2    1
    18    19    20    1
    19    21    22    1
    20    23    24   ar
    21    23    28    1
    22    25    26   ar
    23    27    22   ar
    24    28    20   am
    25     9     6   ar
    26    10     7   ar
    27    11     8   ar
    28     2     3    2
    29    21    29    2
    30    22    23   ar
    31    24    25   ar
    32    26    27   ar
    33    28    30    2
    34     1     4    1
@<TRIPOS>MOLECULE
MolPort-010-852-387 ChemDiv-G952-3417 MCULE-2399946296 PubChem-53095823 ZINC000064980503
 30 34 0 0 0
SMALL
GASTEIGER

@<TRIPOS>ATOM
      1 N           9.7384   41.5216    8.9458 N.am    1  UNL1       -0.2613
      2 C          10.0736   40.4408    8.0680 C.2     1  UNL1        0.2483
      3 O           9.2923   40.0761    7.1507 O.2     1  UNL1       -0.2728
      4 H          10.4013   41.7549    9.6353 H       1  UNL1        0.1568
      5 N           6.3845   42.6636    9.0162 N.ar    1  UNL1       -0.1881
      6 N           7.3100   41.7214    9.0886 N.ar    1  UNL1       -0.1400
      7 N           5.7586   44.7533    8.6894 N.ar    1  UNL1       -0.1202
      8 N           4.6595   44.0053    8.8529 N.ar    1  UNL1       -0.1310
      9 C           8.5343   42.2966    8.9198 C.ar    1  UNL1        0.1880
     10 C           6.7799   43.8872    8.7984 C.ar    1  UNL1        0.2195
     11 C           5.0536   42.7176    9.0557 C.ar    1  UNL1        0.1639
     12 S           8.4440   44.0077    8.6591 S.2     1  UNL1       -0.0111
     13 C           4.1474   41.5368    9.2308 C.3     1  UNL1        0.0606
     14 C           2.7608   41.9453    9.7395 C.3     1  UNL1        0.0076
     15 C           2.7887   42.3079   11.2242 C.3     1  UNL1        0.0004
     16 C           3.3449   41.1458   12.0395 C.3     1  UNL1        0.0000
     17 C           4.7640   40.8224   11.5842 C.3     1  UNL1        0.0004
     18 C           4.7737   40.4427   10.1034 C.3     1  UNL1        0.0076
     19 C          11.3562   39.7089    8.2677 C.3     1  UNL1        0.1866
     20 N          12.4627   40.4693    7.7032 N.am    1  UNL1       -0.2136
     21 C          12.3605   41.5093    6.7287 C.2     1  UNL1        0.2555
     22 C          13.5969   42.2811    6.6930 C.ar    1  UNL1        0.0584
     23 C          14.4461   41.7554    7.6452 C.ar    1  UNL1        0.0584
     24 C          15.7135   42.2894    7.8703 C.ar    1  UNL1        0.0047
     25 C          16.1080   43.3889    7.0872 C.ar    1  UNL1        0.0001
     26 C          15.2390   43.9272    6.1138 C.ar    1  UNL1        0.0001
     27 C          13.9628   43.3731    5.9085 C.ar    1  UNL1        0.0047
     28 C          13.7539   40.6456    8.2897 C.2     1  UNL1        0.2555
     29 O          11.3353   41.7300    6.0311 O.2     1  UNL1       -0.2695
     30 O          14.2009   39.9537    9.2428 O.2     1  UNL1       -0.2695
@<TRIPOS>BOND
     1     5     6   ar
     2     7     8   ar
     3     1     2   am
     4    20    21   am
     5     9    12   ar
     6     9     1    1
     7    10    12   ar
     8    10     5   ar
     9    11     5   ar
    10    13    11    1
    11    13    14    1
    12    14    15    1
    13    15    16    1
    14    16    17    1
    15    17    18    1
    16    18    13    1
    17    19     2    1
    18    19    20    1
    19    21    22    1
    20    23    24   ar
    21    23    28    1
    22    25    26   ar
    23    27    22   ar
    24    28    20   am
    25     9     6   ar
    26    10     7   ar
    27    11     8   ar
    28     2     3    2
    29    21    29    2
    30    22    23   ar
    31    24    25   ar
    32    26    27   ar
    33    28    30    2
    34     1     4    1
@<TRIPOS>MOLECULE
MolPort-010-852-387 ChemDiv-G952-3417 MCULE-2399946296 PubChem-53095823 ZINC000064980503
 30 34 0 0 0
SMALL
GASTEIGER

@<TRIPOS>ATOM
      1 N          11.2732   40.6275    8.8604 N.am    1  UNL1       -0.2613
      2 C          12.4782   39.9731    9.2736 C.2     1  UNL1        0.2483
      3 O          12.6468   39.6033   10.4651 O.2     1  UNL1       -0.2728
      4 H          11.2097   40.8821    7.9115 H       1  UNL1        0.1568
      5 N           8.0487   41.2664   10.1840 N.ar    1  UNL1       -0.1881
      6 N           8.8764   40.9297    9.2088 N.ar    1  UNL1       -0.1400
      7 N           7.6436   41.9294   12.2484 N.ar    1  UNL1       -0.1202
      8 N           6.4796   41.8751   11.5876 N.ar    1  UNL1       -0.1310
      9 C          10.1513   40.9481    9.6910 C.ar    1  UNL1        0.1880
     10 C           8.5651   41.5489   11.3479 C.ar    1  UNL1        0.2195
     11 C           6.7373   41.4637   10.3152 C.ar    1  UNL1        0.1639
     12 S          10.2336   41.4113   11.3590 S.2     1  UNL1       -0.0111
     13 C           5.7289   41.3161    9.2164 C.3     1  UNL1        0.0606
     14 C           6.3562   41.4997    7.8304 C.3     1  UNL1        0.0076
     15 C           6.6538   42.9698    7.5358 C.3     1  UNL1        0.0004
     16 C           5.3829   43.8012    7.6704 C.3     1  UNL1        0.0000
     17 C           4.8316   43.6840    9.0875 C.3     1  UNL1        0.0004
     18 C           4.5105   42.2256    9.4141 C.3     1  UNL1        0.0076
     19 C          13.5697   39.7590    8.2820 C.3     1  UNL1        0.1866
     20 N          14.3876   40.9586    8.1668 N.am    1  UNL1       -0.2136
     21 C          15.7017   41.1372    8.6986 C.2     1  UNL1        0.2555
     22 C          16.3403   42.2881    8.0716 C.ar    1  UNL1        0.0584
     23 C          15.4570   42.8034    7.1449 C.ar    1  UNL1        0.0584
     24 C          15.7814   43.9085    6.3604 C.ar    1  UNL1        0.0047
     25 C          17.0474   44.4925    6.5455 C.ar    1  UNL1        0.0001
     26 C          17.9512   43.9649    7.4927 C.ar    1  UNL1        0.0001
     27 C          17.6019   42.8458    8.2696 C.ar    1  UNL1        0.0047
     28 C          14.2520   41.9832    7.1798 C.2     1  UNL1        0.2555
     29 O          16.2264   40.3849    9.5619 O.2     1  UNL1       -0.2695
     30 O          13.2443   42.1243    6.4372 O.2     1  UNL1       -0.2695
@<TRIPOS>BOND
     1     5     6   ar
     2     7     8   ar
     3     1     2   am
     4    20    21   am
     5     9    12   ar
     6     9     1    1
     7    10    12   ar
     8    10     5   ar
     9    11     5   ar
    10    13    11    1
    11    13    14    1
    12    14    15    1
    13    15    16    1
    14    16    17    1
    15    17    18    1
    16    18    13    1
    17    19     2    1
    18    19    20    1
    19    21    22    1
    20    23    24   ar
    21    23    28    1
    22    25    26   ar
    23    27    22   ar
    24    28    20   am
    25     9     6   ar
    26    10     7   ar
    27    11     8   ar
    28     2     3    2
    29    21    29    2
    30    22    23   ar
    31    24    25   ar
    32    26    27   ar
    33    28    30    2
    34     1     4    1
@<TRIPOS>MOLECULE
MolPort-010-852-387 ChemDiv-G952-3417 MCULE-2399946296 PubChem-53095823 ZINC000064980503
 30 34 0 0 0
SMALL
GASTEIGER

@<TRIPOS>ATOM
      1 N           9.0027   41.2437    7.7494 N.am    1  UNL1       -0.2613
      2 C          10.3669   41.4748    8.1190 C.2     1  UNL1        0.2483
      3 O          10.7022   42.4902    8.7835 O.2     1  UNL1       -0.2728
      4 H           8.8149   40.4252    7.2356 H       1  UNL1        0.1568
      5 N           5.8470   42.5655    8.6725 N.ar    1  UNL1       -0.1881
      6 N           6.6932   41.5695    8.4686 N.ar    1  UNL1       -0.1400
      7 N           5.3170   44.7062    8.6295 N.ar    1  UNL1       -0.1202
      8 N           4.2332   44.0115    8.9998 N.ar    1  UNL1       -0.1310
      9 C           7.8846   42.0856    8.0534 C.ar    1  UNL1        0.1880
     10 C           6.2700   43.7777    8.4433 C.ar    1  UNL1        0.2195
     11 C           4.5683   42.6917    9.0256 C.ar    1  UNL1        0.1639
     12 S           7.8619   43.8139    7.9260 S.2     1  UNL1       -0.0111
     13 C           3.6429   41.5544    9.3356 C.3     1  UNL1        0.0606
     14 C           2.4311   42.0055   10.1580 C.3     1  UNL1        0.0076
     15 C           2.8053   42.2686   11.6165 C.3     1  UNL1        0.0004
     16 C           3.4440   41.0267   12.2283 C.3     1  UNL1        0.0000
     17 C           4.7049   40.6551   11.4551 C.3     1  UNL1        0.0004
     18 C           4.3670   40.3726    9.9912 C.3     1  UNL1        0.0076
     19 C          11.4160   40.5135    7.6766 C.3     1  UNL1        0.1866
     20 N          12.4158   40.3432    8.7219 N.am    1  UNL1       -0.2136
     21 C          12.3068   39.4880    9.8614 C.2     1  UNL1        0.2555
     22 C          13.6202   39.2898   10.4624 C.ar    1  UNL1        0.0584
     23 C          14.5384   39.9821    9.6994 C.ar    1  UNL1        0.0584
     24 C          15.8975   39.9777   10.0072 C.ar    1  UNL1        0.0047
     25 C          16.3103   39.2427   11.1331 C.ar    1  UNL1        0.0001
     26 C          15.3713   38.5339   11.9129 C.ar    1  UNL1        0.0001
     27 C          14.0052   38.5504   11.5790 C.ar    1  UNL1        0.0047
     28 C          13.8124   40.6250    8.6105 C.2     1  UNL1        0.2555
     29 O          11.2305   38.9679   10.2581 O.2     1  UNL1       -0.2695
     30 O          14.3273   41.3061    7.6843 O.2     1  UNL1       -0.2695
@<TRIPOS>BOND
     1     5     6   ar
     2     7     8   ar
     3     1     2   am
     4    20    21   am
     5     9    12   ar
     6     9     1    1
     7    10    12   ar
     8    10     5   ar
     9    11     5   ar
    10    13    11    1
    11    13    14    1
    12    14    15    1
    13    15    16    1
    14    16    17    1
    15    17    18    1
    16    18    13    1
    17    19     2    1
    18    19    20    1
    19    21    22    1
    20    23    24   ar
    21    23    28    1
    22    25    26   ar
    23    27    22   ar
    24    28    20   am
    25     9     6   ar
    26    10     7   ar
    27    11     8   ar
    28     2     3    2
    29    21    29    2
    30    22    23   ar
    31    24    25   ar
    32    26    27   ar
    33    28    30    2
    34     1     4    1
