@<TRIPOS>MOLECULE
Molport-053-362-112
 18 19 0 0 0
SMALL
GASTEIGER

@<TRIPOS>ATOM
      1 CL         18.1655   44.0448    7.5121 Cl      1  UNL1       -0.0822
      2 C          16.6367   43.1866    7.4790 C.ar    1  UNL1        0.0592
      3 C          16.4142   42.1086    8.3699 C.ar    1  UNL1        0.0116
      4 C          15.1920   41.4094    8.3557 C.ar    1  UNL1        0.0052
      5 C          14.2275   41.8216    7.4389 C.ar    1  UNL1        0.0516
      6 C          12.9531   41.3846    7.1482 C.ar    1  UNL1        0.1679
      7 C          14.4395   42.8611    6.5782 C.ar    1  UNL1        0.0775
      8 C          15.6359   43.5742    6.5651 C.ar    1  UNL1        0.0299
      9 N          12.4361   42.1428    6.1520 N.ar    1  UNL1       -0.1563
     10 N          13.3519   43.0428    5.8094 N.ar    1  UNL1       -0.2745
     11 H          13.2508   43.7279    5.1097 H       1  UNL1        0.1890
     12 N          12.2658   40.3039    7.7855 N.pl3   1  UNL1       -0.1975
     13 H          12.3914   39.3889    7.4446 H       1  UNL1        0.1753
     14 S          11.2188   40.5621    9.1405 S.O2    1  UNL1        0.0760
     15 O           9.8168   40.1445    8.7935 O.2     1  UNL1       -0.1499
     16 O          11.2072   42.0253    9.4818 O.2     1  UNL1       -0.1499
     17 C          11.8049   39.6614   10.5333 C.2     1  UNL1        0.1440
     18 C          13.0661   39.7741   10.9518 C.2     1  UNL1        0.0230
@<TRIPOS>BOND
     1     2     1    1
     2     3     4   ar
     3     5     6   ar
     4     6    12    1
     5     7     5   ar
     6     8     2   ar
     7    10     9   ar
     8    10     7   ar
     9    14    12    1
    10    14    17    1
    11     2     3   ar
    12     4     5   ar
    13     6     9   ar
    14    17    18    2
    15     7     8   ar
    16    14    15    2
    17    14    16    2
    18    12    13    1
    19    10    11    1
@<TRIPOS>MOLECULE
Molport-053-362-112
 18 19 0 0 0
SMALL
GASTEIGER

@<TRIPOS>ATOM
      1 CL         18.1053   44.0257    7.5621 Cl      1  UNL1       -0.0822
      2 C          16.5951   43.1354    7.5288 C.ar    1  UNL1        0.0592
      3 C          16.3956   42.0525    8.4193 C.ar    1  UNL1        0.0116
      4 C          15.1884   41.3276    8.4049 C.ar    1  UNL1        0.0052
      5 C          14.2154   41.7196    7.4883 C.ar    1  UNL1        0.0516
      6 C          12.9506   41.2557    7.1975 C.ar    1  UNL1        0.1679
      7 C          14.4053   42.7635    6.6280 C.ar    1  UNL1        0.0775
      8 C          15.5863   43.5019    6.6150 C.ar    1  UNL1        0.0299
      9 N          12.4176   42.0031    6.2015 N.ar    1  UNL1       -0.1563
     10 N          13.3141   42.9224    5.8592 N.ar    1  UNL1       -0.2745
     11 H          13.1984   43.6054    5.1597 H       1  UNL1        0.1890
     12 N          12.2864   40.1605    7.8345 N.pl3   1  UNL1       -0.1975
     13 H          12.4544   39.2455    7.5123 H       1  UNL1        0.1753
     14 S          11.1946   40.4011    9.1569 S.O2    1  UNL1        0.0760
     15 O          11.5913   41.6250    9.9348 O.2     1  UNL1       -0.1499
     16 O          11.2632   39.2131   10.0742 O.2     1  UNL1       -0.1499
     17 C           9.5484   40.5574    8.5567 C.2     1  UNL1        0.1440
     18 C           9.1327   41.6718    7.9534 C.2     1  UNL1        0.0230
@<TRIPOS>BOND
     1     2     1    1
     2     3     4   ar
     3     5     6   ar
     4     6    12    1
     5     7     5   ar
     6     8     2   ar
     7    10     9   ar
     8    10     7   ar
     9    14    12    1
    10    14    17    1
    11     2     3   ar
    12     4     5   ar
    13     6     9   ar
    14    17    18    2
    15     7     8   ar
    16    14    15    2
    17    14    16    2
    18    12    13    1
    19    10    11    1
@<TRIPOS>MOLECULE
Molport-053-362-112
 18 19 0 0 0
SMALL
GASTEIGER

@<TRIPOS>ATOM
      1 CL         17.7420   44.1044    7.2888 Cl      1  UNL1       -0.0822
      2 C          16.1176   43.5265    6.9697 C.ar    1  UNL1        0.0592
      3 C          15.2817   44.2337    6.0716 C.ar    1  UNL1        0.0116
      4 C          13.9747   43.7825    5.8048 C.ar    1  UNL1        0.0052
      5 C          13.5497   42.6264    6.4555 C.ar    1  UNL1        0.0516
      6 C          12.3703   41.9134    6.4396 C.ar    1  UNL1        0.1679
      7 C          14.3537   41.9425    7.3225 C.ar    1  UNL1        0.0775
      8 C          15.6511   42.3602    7.6094 C.ar    1  UNL1        0.0299
      9 N          12.4802   40.8477    7.2685 N.ar    1  UNL1       -0.1563
     10 N          13.6961   40.8736    7.8042 N.ar    1  UNL1       -0.2745
     11 H          14.0552   40.2195    8.4465 H       1  UNL1        0.1890
     12 N          11.2029   42.2302    5.6761 N.pl3   1  UNL1       -0.1975
     13 H          11.2088   43.0293    5.1011 H       1  UNL1        0.1753
     14 S           9.7794   41.2458    5.7361 S.O2    1  UNL1        0.0760
     15 O           9.7378   40.3293    4.5450 O.2     1  UNL1       -0.1499
     16 O           8.5664   42.1314    5.6958 O.2     1  UNL1       -0.1499
     17 C           9.7527   40.3180    7.2305 C.2     1  UNL1        0.1440
     18 C           9.3735   39.0395    7.2468 C.2     1  UNL1        0.0230
@<TRIPOS>BOND
     1     2     1    1
     2     3     4   ar
     3     5     6   ar
     4     6    12    1
     5     7     5   ar
     6     8     2   ar
     7    10     9   ar
     8    10     7   ar
     9    14    12    1
    10    14    17    1
    11     2     3   ar
    12     4     5   ar
    13     6     9   ar
    14    17    18    2
    15     7     8   ar
    16    14    15    2
    17    14    16    2
    18    12    13    1
    19    10    11    1
@<TRIPOS>MOLECULE
Molport-053-362-112
 18 19 0 0 0
SMALL
GASTEIGER

@<TRIPOS>ATOM
      1 CL         14.3090   38.7685   12.1776 Cl      1  UNL1       -0.0822
      2 C          14.2273   39.6896   10.6877 C.ar    1  UNL1        0.0592
      3 C          15.3870   39.8435    9.8898 C.ar    1  UNL1        0.0116
      4 C          15.3377   40.5802    8.6907 C.ar    1  UNL1        0.0052
      5 C          14.1141   41.1413    8.3322 C.ar    1  UNL1        0.0516
      6 C          13.7031   41.9045    7.2606 C.ar    1  UNL1        0.1679
      7 C          12.9939   40.9947    9.1001 C.ar    1  UNL1        0.0775
      8 C          13.0068   40.2730   10.2914 C.ar    1  UNL1        0.0299
      9 N          12.3868   42.1941    7.3959 N.ar    1  UNL1       -0.1563
     10 N          11.9615   41.6341    8.5236 N.ar    1  UNL1       -0.2745
     11 H          11.0440   41.6798    8.8776 H       1  UNL1        0.1890
     12 N          14.5199   42.3336    6.1675 N.pl3   1  UNL1       -0.1975
     13 H          14.8533   41.6643    5.5270 H       1  UNL1        0.1753
     14 S          14.9380   43.9987    5.9406 S.O2    1  UNL1        0.0760
     15 O          13.8788   44.8809    6.5409 O.2     1  UNL1       -0.1499
     16 O          15.0196   44.2896    4.4688 O.2     1  UNL1       -0.1499
     17 C          16.5041   44.3301    6.6700 C.2     1  UNL1        0.1440
     18 C          17.2321   43.3584    7.2219 C.2     1  UNL1        0.0230
@<TRIPOS>BOND
     1     2     1    1
     2     3     4   ar
     3     5     6   ar
     4     6    12    1
     5     7     5   ar
     6     8     2   ar
     7    10     9   ar
     8    10     7   ar
     9    14    12    1
    10    14    17    1
    11     2     3   ar
    12     4     5   ar
    13     6     9   ar
    14    17    18    2
    15     7     8   ar
    16    14    15    2
    17    14    16    2
    18    12    13    1
    19    10    11    1
@<TRIPOS>MOLECULE
Molport-053-362-112
 18 19 0 0 0
SMALL
GASTEIGER

@<TRIPOS>ATOM
      1 CL         15.4112   44.8143    5.9270 Cl      1  UNL1       -0.0822
      2 C          15.3619   43.3904    6.9493 C.ar    1  UNL1        0.0592
      3 C          14.1554   42.6613    7.0843 C.ar    1  UNL1        0.0116
      4 C          14.0995   41.5158    7.9014 C.ar    1  UNL1        0.0052
      5 C          15.2681   41.1397    8.5599 C.ar    1  UNL1        0.0516
      6 C          15.5779   40.1060    9.4172 C.ar    1  UNL1        0.1679
      7 C          16.4331   41.8414    8.4317 C.ar    1  UNL1        0.0775
      8 C          16.5240   42.9784    7.6323 C.ar    1  UNL1        0.0299
      9 N          16.8802   40.1986    9.7780 N.ar    1  UNL1       -0.1563
     10 N          17.3952   41.2627    9.1710 N.ar    1  UNL1       -0.2745
     11 H          18.3255   41.5750    9.2496 H       1  UNL1        0.1890
     12 N          14.6819   39.0857    9.8674 N.pl3   1  UNL1       -0.1975
     13 H          13.7700   39.0519    9.4980 H       1  UNL1        0.1753
     14 S          15.1585   37.9085   11.0446 S.O2    1  UNL1        0.0760
     15 O          15.6629   38.5953   12.2832 O.2     1  UNL1       -0.1499
     16 O          16.2707   37.0706   10.4805 O.2     1  UNL1       -0.1499
     17 C          13.7999   36.8594   11.4298 C.2     1  UNL1        0.1440
     18 C          13.4018   35.9031   10.5898 C.2     1  UNL1        0.0230
@<TRIPOS>BOND
     1     2     1    1
     2     3     4   ar
     3     5     6   ar
     4     6    12    1
     5     7     5   ar
     6     8     2   ar
     7    10     9   ar
     8    10     7   ar
     9    14    12    1
    10    14    17    1
    11     2     3   ar
    12     4     5   ar
    13     6     9   ar
    14    17    18    2
    15     7     8   ar
    16    14    15    2
    17    14    16    2
    18    12    13    1
    19    10    11    1
@<TRIPOS>MOLECULE
Molport-053-362-112
 18 19 0 0 0
SMALL
GASTEIGER

@<TRIPOS>ATOM
      1 CL         16.3900   44.7908    6.4277 Cl      1  UNL1       -0.0822
      2 C          15.2184   43.5211    6.7280 C.ar    1  UNL1        0.0592
      3 C          15.5289   42.4748    7.6304 C.ar    1  UNL1        0.0116
      4 C          14.5988   41.4479    7.8822 C.ar    1  UNL1        0.0052
      5 C          13.3786   41.5089    7.2129 C.ar    1  UNL1        0.0516
      6 C          12.2613   40.7020    7.2110 C.ar    1  UNL1        0.1679
      7 C          13.0766   42.5169    6.3418 C.ar    1  UNL1        0.0775
      8 C          13.9725   43.5481    6.0693 C.ar    1  UNL1        0.0299
      9 N          11.3361   41.2203    6.3683 N.ar    1  UNL1       -0.1563
     10 N          11.8433   42.3297    5.8410 N.ar    1  UNL1       -0.2745
     11 H          11.3914   42.9163    5.1922 H       1  UNL1        0.1890
     12 N          12.0850   39.5031    7.9712 N.pl3   1  UNL1       -0.1975
     13 H          12.3524   38.6418    7.5763 H       1  UNL1        0.1753
     14 S          11.4138   39.5262    9.5674 S.O2    1  UNL1        0.0760
     15 O          11.0417   38.1317    9.9886 O.2     1  UNL1       -0.1499
     16 O          10.1701   40.3691    9.5662 O.2     1  UNL1       -0.1499
     17 C          12.5691   40.2246   10.6953 C.2     1  UNL1        0.1440
     18 C          13.5464   39.4917   11.2303 C.2     1  UNL1        0.0230
@<TRIPOS>BOND
     1     2     1    1
     2     3     4   ar
     3     5     6   ar
     4     6    12    1
     5     7     5   ar
     6     8     2   ar
     7    10     9   ar
     8    10     7   ar
     9    14    12    1
    10    14    17    1
    11     2     3   ar
    12     4     5   ar
    13     6     9   ar
    14    17    18    2
    15     7     8   ar
    16    14    15    2
    17    14    16    2
    18    12    13    1
    19    10    11    1
@<TRIPOS>MOLECULE
Molport-053-362-112
 18 19 0 0 0
SMALL
GASTEIGER

@<TRIPOS>ATOM
      1 CL         16.5831   44.3841    6.0616 Cl      1  UNL1       -0.0822
      2 C          15.9200   43.0866    7.0371 C.ar    1  UNL1        0.0592
      3 C          16.7093   42.4945    8.0529 C.ar    1  UNL1        0.0116
      4 C          16.1912   41.4517    8.8447 C.ar    1  UNL1        0.0052
      5 C          14.8869   41.0366    8.5860 C.ar    1  UNL1        0.0516
      6 C          14.0749   40.0721    9.1427 C.ar    1  UNL1        0.1679
      7 C          14.1234   41.6058    7.6066 C.ar    1  UNL1        0.0775
      8 C          14.6037   42.6388    6.8051 C.ar    1  UNL1        0.0299
      9 N          12.8765   40.0769    8.5115 N.ar    1  UNL1       -0.1563
     10 N          12.9152   41.0176    7.5735 N.ar    1  UNL1       -0.2745
     11 H          12.1818   41.2454    6.9575 H       1  UNL1        0.1890
     12 N          14.4221   39.1945   10.2176 N.pl3   1  UNL1       -0.1975
     13 H          14.3861   39.5315   11.1420 H       1  UNL1        0.1753
     14 S          14.9041   37.5551    9.9366 S.O2    1  UNL1        0.0760
     15 O          15.4540   36.9571   11.2017 O.2     1  UNL1       -0.1499
     16 O          15.9839   37.5316    8.8923 O.2     1  UNL1       -0.1499
     17 C          13.5343   36.6171    9.3546 C.2     1  UNL1        0.1440
     18 C          12.6203   36.1295   10.1945 C.2     1  UNL1        0.0230
@<TRIPOS>BOND
     1     2     1    1
     2     3     4   ar
     3     5     6   ar
     4     6    12    1
     5     7     5   ar
     6     8     2   ar
     7    10     9   ar
     8    10     7   ar
     9    14    12    1
    10    14    17    1
    11     2     3   ar
    12     4     5   ar
    13     6     9   ar
    14    17    18    2
    15     7     8   ar
    16    14    15    2
    17    14    16    2
    18    12    13    1
    19    10    11    1
@<TRIPOS>MOLECULE
Molport-053-362-112
 18 19 0 0 0
SMALL
GASTEIGER

@<TRIPOS>ATOM
      1 CL         17.4255   41.9189    8.9351 Cl      1  UNL1       -0.0822
      2 C          15.7841   41.6874    8.3635 C.ar    1  UNL1        0.0592
      3 C          14.9593   40.7072    8.9671 C.ar    1  UNL1        0.0116
      4 C          13.6389   40.5091    8.5194 C.ar    1  UNL1        0.0052
      5 C          13.1896   41.3100    7.4719 C.ar    1  UNL1        0.0516
      6 C          11.9928   41.3934    6.7934 C.ar    1  UNL1        0.1679
      7 C          13.9831   42.2560    6.8877 C.ar    1  UNL1        0.0775
      8 C          15.2932   42.4785    7.3050 C.ar    1  UNL1        0.0299
      9 N          12.0821   42.3561    5.8448 N.ar    1  UNL1       -0.1563
     10 N          13.3026   42.8780    5.9094 N.ar    1  UNL1       -0.2745
     11 H          13.6502   43.5994    5.3366 H       1  UNL1        0.1890
     12 N          10.8280   40.5994    7.0363 N.pl3   1  UNL1       -0.1975
     13 H          10.9350   39.6435    7.2462 H       1  UNL1        0.1753
     14 S           9.2346   41.2746    6.9709 S.O2    1  UNL1        0.0760
     15 O           8.9856   41.8738    5.6147 O.2     1  UNL1       -0.1499
     16 O           9.1190   42.3638    7.9993 O.2     1  UNL1       -0.1499
     17 C           8.0404   40.0327    7.3262 C.2     1  UNL1        0.1440
     18 C           7.2855   39.5006    6.3641 C.2     1  UNL1        0.0230
@<TRIPOS>BOND
     1     2     1    1
     2     3     4   ar
     3     5     6   ar
     4     6    12    1
     5     7     5   ar
     6     8     2   ar
     7    10     9   ar
     8    10     7   ar
     9    14    12    1
    10    14    17    1
    11     2     3   ar
    12     4     5   ar
    13     6     9   ar
    14    17    18    2
    15     7     8   ar
    16    14    15    2
    17    14    16    2
    18    12    13    1
    19    10    11    1
@<TRIPOS>MOLECULE
Molport-053-362-112
 18 19 0 0 0
SMALL
GASTEIGER

@<TRIPOS>ATOM
      1 CL         16.6086   41.9354    8.5543 Cl      1  UNL1       -0.0822
      2 C          14.9790   41.5039    8.0718 C.ar    1  UNL1        0.0592
      3 C          14.3235   40.4158    8.6977 C.ar    1  UNL1        0.0116
      4 C          13.0149   40.0568    8.3215 C.ar    1  UNL1        0.0052
      5 C          12.4053   40.8103    7.3209 C.ar    1  UNL1        0.0516
      6 C          11.1693   40.7501    6.7139 C.ar    1  UNL1        0.1679
      7 C          13.0353   41.8602    6.7153 C.ar    1  UNL1        0.0775
      8 C          14.3289   42.2426    7.0625 C.ar    1  UNL1        0.0299
      9 N          11.0783   41.7319    5.7852 N.ar    1  UNL1       -0.1563
     10 N          12.2239   42.4055    5.7927 N.ar    1  UNL1       -0.2745
     11 H          12.4418   43.1750    5.2186 H       1  UNL1        0.1890
     12 N          10.1319   39.8088    7.0037 N.pl3   1  UNL1       -0.1975
     13 H          10.0877   39.4056    7.9007 H       1  UNL1        0.1753
     14 S           8.9517   39.3595    5.8188 S.O2    1  UNL1        0.0760
     15 O           8.1640   40.5677    5.3942 O.2     1  UNL1       -0.1499
     16 O           8.0031   38.3628    6.4222 O.2     1  UNL1       -0.1499
     17 C           9.7428   38.6195    4.4327 C.2     1  UNL1        0.1440
     18 C          10.0622   39.3341    3.3529 C.2     1  UNL1        0.0230
@<TRIPOS>BOND
     1     2     1    1
     2     3     4   ar
     3     5     6   ar
     4     6    12    1
     5     7     5   ar
     6     8     2   ar
     7    10     9   ar
     8    10     7   ar
     9    14    12    1
    10    14    17    1
    11     2     3   ar
    12     4     5   ar
    13     6     9   ar
    14    17    18    2
    15     7     8   ar
    16    14    15    2
    17    14    16    2
    18    12    13    1
    19    10    11    1
@<TRIPOS>MOLECULE
Molport-053-362-112
 18 19 0 0 0
SMALL
GASTEIGER

@<TRIPOS>ATOM
      1 CL         17.4312   42.2031    8.7705 Cl      1  UNL1       -0.0822
      2 C          15.8010   41.7962    8.2690 C.ar    1  UNL1        0.0592
      3 C          15.1030   40.7512    8.9220 C.ar    1  UNL1        0.0116
      4 C          13.7933   40.4124    8.5309 C.ar    1  UNL1        0.0052
      5 C          13.2259   41.1417    7.4885 C.ar    1  UNL1        0.0516
      6 C          12.0018   41.0904    6.8571 C.ar    1  UNL1        0.1679
      7 C          13.8970   42.1500    6.8568 C.ar    1  UNL1        0.0775
      8 C          15.1929   42.5114    7.2176 C.ar    1  UNL1        0.0299
      9 N          11.9574   42.0369    5.8891 N.ar    1  UNL1       -0.1563
     10 N          13.1205   42.6797    5.8959 N.ar    1  UNL1       -0.2745
     11 H          13.3714   43.4200    5.2973 H       1  UNL1        0.1890
     12 N          10.9332   40.1890    7.1600 N.pl3   1  UNL1       -0.1975
     13 H          11.1449   39.3041    7.5360 H       1  UNL1        0.1753
     14 S           9.2771   40.6126    6.8832 S.O2    1  UNL1        0.0760
     15 O           8.3771   39.5069    7.3604 O.2     1  UNL1       -0.1499
     16 O           9.0569   40.8006    5.4089 O.2     1  UNL1       -0.1499
     17 C           8.8959   42.1189    7.7082 C.2     1  UNL1        0.1440
     18 C           7.9569   42.1737    8.6537 C.2     1  UNL1        0.0230
@<TRIPOS>BOND
     1     2     1    1
     2     3     4   ar
     3     5     6   ar
     4     6    12    1
     5     7     5   ar
     6     8     2   ar
     7    10     9   ar
     8    10     7   ar
     9    14    12    1
    10    14    17    1
    11     2     3   ar
    12     4     5   ar
    13     6     9   ar
    14    17    18    2
    15     7     8   ar
    16    14    15    2
    17    14    16    2
    18    12    13    1
    19    10    11    1
