@<TRIPOS>MOLECULE
MolPort-004-987-956 CSSS00159522349 MCULE-1732611746 PubChem-45163321
 37 41 0 0 0
SMALL
GASTEIGER

@<TRIPOS>ATOM
      1 C          14.3707   38.5569    9.8964 C.ar    1  UNL1        0.1514
      2 C          14.0571   39.7793    9.2949 C.ar    1  UNL1        0.0760
      3 C          15.2607   40.4255    9.0755 C.ar    1  UNL1        0.0505
      4 C          15.5742   41.6956    8.6014 C.ar    1  UNL1        0.0202
      5 C          16.9308   42.0591    8.5589 C.ar    1  UNL1        0.0645
      6 C          17.9125   41.1447    9.0135 C.ar    1  UNL1        0.1147
      7 C          16.2395   39.5776    9.5172 C.ar    1  UNL1        0.1453
      8 N          17.5535   39.9174    9.4939 N.ar    1  UNL1       -0.2254
      9 N          15.7214   38.4386   10.0128 N.ar    1  UNL1       -0.3040
     10 C          11.7493   40.5077   10.1022 C.2     1  UNL1        0.2495
     11 O          12.0840   40.5246   11.3180 O.2     1  UNL1       -0.2698
     12 N          12.7346   40.2909    9.0848 N.am    1  UNL1       -0.2790
     13 H          12.4810   40.5130    8.1598 H       1  UNL1        0.1552
     14 C          10.3500   40.7698    9.7231 C.ar    1  UNL1        0.0537
     15 C           9.5005   41.4768   10.5879 C.ar    1  UNL1        0.0045
     16 C           8.1736   41.7275   10.2264 C.ar    1  UNL1        0.0001
     17 C           7.6866   41.2736    8.9981 C.ar    1  UNL1        0.0000
     18 C           8.5261   40.5697    8.1305 C.ar    1  UNL1        0.0001
     19 C           9.8530   40.3188    8.4916 C.ar    1  UNL1        0.0045
     20 C          13.3902   37.5417   10.3404 C.2     1  UNL1        0.3587
     21 O          13.4547   37.0758   11.5108 O.2     1  UNL1       -0.2432
     22 C          11.0338   37.0071    9.8671 C.3     1  UNL1        0.2560
     23 O          12.3926   37.1020    9.4686 O.3     1  UNL1       -0.4403
     24 N          17.2917   43.3508    8.0664 N.pl3   1  UNL1       -0.3278
     25 H          17.5552   44.0445    8.7133 H       1  UNL1        0.1472
     26 C          17.2869   43.6857    6.6503 C.3     1  UNL1        0.1176
     27 C          15.9031   44.0235    6.2207 C.ar    1  UNL1        0.0381
     28 C          15.4446   45.2810    5.9069 C.ar    1  UNL1        0.1771
     29 C          13.8268   43.8962    5.5743 C.ar    1  UNL1        0.1795
     30 C          14.8871   43.1194    6.0057 C.ar    1  UNL1        0.0412
     31 O          14.1941   45.1584    5.5308 O.2     1  UNL1       -0.4476
     32 C          16.4766   37.3523   10.6276 C.3     1  UNL1        0.1371
     33 C          17.3609   36.6658    9.5980 C.3     1  UNL1        0.1378
     34 C          16.4975   35.9214    8.6086 C.3     1  UNL1        0.0341
     35 C          17.2325   34.6351    8.3825 C.3     1  UNL1        0.0346
     36 C          18.4562   34.7562    9.2590 C.3     1  UNL1        0.1422
     37 O          18.2116   35.7424   10.2249 O.3     1  UNL1       -0.3543
@<TRIPOS>BOND
     1    22    23    1
     2    20    23    1
     3    20     1    1
     4     2     3   ar
     5     2    12    1
     6     4     5   ar
     7     5    24    1
     8     6     8   ar
     9     7     9   ar
    10     7     3   ar
    11    32     9    1
    12    33    32    1
    13    33    34    1
    14    33    37    1
    15    34    35    1
    16    35    36    1
    17    36    37    1
    18    26    24    1
    19    26    27    1
    20    28    31   ar
    21    29    31   ar
    22    30    27   ar
    23    10    14    1
    24    15    16   ar
    25    17    18   ar
    26    19    14   ar
    27     9     1   ar
    28    12    10   am
    29    20    21    2
    30     1     2   ar
    31     3     4   ar
    32     5     6   ar
    33     7     8   ar
    34    27    28   ar
    35    29    30   ar
    36    10    11    2
    37    14    15   ar
    38    16    17   ar
    39    18    19   ar
    40    24    25    1
    41    12    13    1
@<TRIPOS>MOLECULE
MolPort-004-987-956 CSSS00159522349 MCULE-1732611746 PubChem-45163321
 37 41 0 0 0
SMALL
GASTEIGER

@<TRIPOS>ATOM
      1 C          13.7720   41.3026    8.1121 C.ar    1  UNL1        0.1514
      2 C          12.8447   40.2706    8.2846 C.ar    1  UNL1        0.0760
      3 C          13.4597   39.3243    9.0849 C.ar    1  UNL1        0.0505
      4 C          13.0734   38.0570    9.5103 C.ar    1  UNL1        0.0202
      5 C          13.9863   37.3233   10.2864 C.ar    1  UNL1        0.0645
      6 C          15.2544   37.8802   10.5839 C.ar    1  UNL1        0.1147
      7 C          14.6997   39.8194    9.3840 C.ar    1  UNL1        0.1453
      8 N          15.5978   39.1191   10.1225 N.ar    1  UNL1       -0.2254
      9 N          14.9058   41.0187    8.8089 N.ar    1  UNL1       -0.3040
     10 C          10.3771   40.8671    8.0326 C.2     1  UNL1        0.2495
     11 O          10.4414   41.8412    8.8310 O.2     1  UNL1       -0.2698
     12 N          11.5693   40.1779    7.6369 N.am    1  UNL1       -0.2790
     13 H          11.5071   39.5886    6.8507 H       1  UNL1        0.1552
     14 C           9.0784   40.4733    7.4592 C.ar    1  UNL1        0.0537
     15 C           7.8818   40.9393    8.0250 C.ar    1  UNL1        0.0045
     16 C           6.6499   40.5674    7.4788 C.ar    1  UNL1        0.0001
     17 C           6.6055   39.7274    6.3632 C.ar    1  UNL1        0.0000
     18 C           7.7924   39.2597    5.7929 C.ar    1  UNL1        0.0001
     19 C           9.0244   39.6313    6.3389 C.ar    1  UNL1        0.0045
     20 C          13.5601   42.5204    7.2990 C.2     1  UNL1        0.3587
     21 O          13.0731   43.5547    7.8319 O.2     1  UNL1       -0.2432
     22 C          13.9965   43.7322    5.2006 C.3     1  UNL1        0.2560
     23 O          13.9014   42.5280    5.9455 O.3     1  UNL1       -0.4403
     24 N          13.6196   36.0232   10.7517 N.pl3   1  UNL1       -0.3278
     25 H          13.7917   35.7943   11.6936 H       1  UNL1        0.1472
     26 C          13.0027   35.0224    9.8940 C.3     1  UNL1        0.1176
     27 C          14.0591   34.2527    9.1834 C.ar    1  UNL1        0.0381
     28 C          14.0041   32.9152    8.8701 C.ar    1  UNL1        0.1771
     29 C          15.8448   33.6971    8.0663 C.ar    1  UNL1        0.1795
     30 C          15.2245   34.7763    8.6700 C.ar    1  UNL1        0.0412
     31 O          15.0974   32.6240    8.2066 O.2     1  UNL1       -0.4476
     32 C          16.1412   41.7928    8.8651 C.3     1  UNL1        0.1371
     33 C          16.3258   42.5989    7.5885 C.3     1  UNL1        0.1378
     34 C          17.7140   42.3677    7.0430 C.3     1  UNL1        0.0341
     35 C          18.1516   43.7240    6.5796 C.3     1  UNL1        0.0346
     36 C          16.9737   44.6143    6.8958 C.3     1  UNL1        0.1422
     37 O          16.1770   43.9692    7.8522 O.3     1  UNL1       -0.3543
@<TRIPOS>BOND
     1    22    23    1
     2    20    23    1
     3    20     1    1
     4     2     3   ar
     5     2    12    1
     6     4     5   ar
     7     5    24    1
     8     6     8   ar
     9     7     9   ar
    10     7     3   ar
    11    32     9    1
    12    33    32    1
    13    33    34    1
    14    33    37    1
    15    34    35    1
    16    35    36    1
    17    36    37    1
    18    26    24    1
    19    26    27    1
    20    28    31   ar
    21    29    31   ar
    22    30    27   ar
    23    10    14    1
    24    15    16   ar
    25    17    18   ar
    26    19    14   ar
    27     9     1   ar
    28    12    10   am
    29    20    21    2
    30     1     2   ar
    31     3     4   ar
    32     5     6   ar
    33     7     8   ar
    34    27    28   ar
    35    29    30   ar
    36    10    11    2
    37    14    15   ar
    38    16    17   ar
    39    18    19   ar
    40    24    25    1
    41    12    13    1
@<TRIPOS>MOLECULE
MolPort-004-987-956 CSSS00159522349 MCULE-1732611746 PubChem-45163321
 37 41 0 0 0
SMALL
GASTEIGER

@<TRIPOS>ATOM
      1 C          11.7950   39.1203    8.6985 C.ar    1  UNL1        0.1514
      2 C          13.1163   38.7131    8.9050 C.ar    1  UNL1        0.0760
      3 C          13.8960   39.8509    8.7959 C.ar    1  UNL1        0.0505
      4 C          15.2726   40.0533    8.8097 C.ar    1  UNL1        0.0202
      5 C          15.7411   41.3628    8.6098 C.ar    1  UNL1        0.0645
      6 C          14.8129   42.4085    8.3825 C.ar    1  UNL1        0.1147
      7 C          13.0345   40.8874    8.5599 C.ar    1  UNL1        0.1453
      8 N          13.4709   42.1560    8.3533 N.ar    1  UNL1       -0.2254
      9 N          11.7574   40.4665    8.5028 N.ar    1  UNL1       -0.3040
     10 C          14.8981   36.8876    8.8787 C.2     1  UNL1        0.2495
     11 O          15.8583   37.7042    8.8385 O.2     1  UNL1       -0.2698
     12 N          13.5572   37.3581    9.0612 N.am    1  UNL1       -0.2790
     13 H          12.8786   36.6920    9.3164 H       1  UNL1        0.1552
     14 C          15.1621   35.4405    8.7962 C.ar    1  UNL1        0.0537
     15 C          14.1268   34.5167    9.0059 C.ar    1  UNL1        0.0045
     16 C          14.3774   33.1439    8.9248 C.ar    1  UNL1        0.0001
     17 C          15.6644   32.6847    8.6333 C.ar    1  UNL1        0.0000
     18 C          16.7009   33.5979    8.4220 C.ar    1  UNL1        0.0001
     19 C          16.4507   34.9708    8.5030 C.ar    1  UNL1        0.0045
     20 C          10.6130   38.2303    8.6930 C.2     1  UNL1        0.3587
     21 O          10.6421   37.1434    9.3324 O.2     1  UNL1       -0.2432
     22 C           8.7739   37.6750    7.1529 C.3     1  UNL1        0.2560
     23 O           9.4655   38.5928    7.9856 O.3     1  UNL1       -0.4403
     24 N          17.1479   41.6110    8.6297 N.pl3   1  UNL1       -0.3278
     25 H          17.7613   40.8416    8.6612 H       1  UNL1        0.1472
     26 C          17.7138   42.9515    8.6054 C.3     1  UNL1        0.1176
     27 C          17.3978   43.6045    7.3065 C.ar    1  UNL1        0.0381
     28 C          17.9842   43.3126    6.0978 C.ar    1  UNL1        0.1771
     29 C          16.4749   44.8102    5.7446 C.ar    1  UNL1        0.1795
     30 C          16.4214   44.5539    7.1029 C.ar    1  UNL1        0.0412
     31 O          17.4050   44.0628    5.1912 O.2     1  UNL1       -0.4476
     32 C          10.5964   41.2964    8.1999 C.3     1  UNL1        0.1371
     33 C          10.4790   41.5254    6.7008 C.3     1  UNL1        0.1378
     34 C           9.0534   41.2891    6.2651 C.3     1  UNL1        0.0341
     35 C           9.1887   40.5566    4.9647 C.3     1  UNL1        0.0346
     36 C          10.6811   40.4408    4.7658 C.3     1  UNL1        0.1422
     37 O          11.3078   40.6316    6.0053 O.3     1  UNL1       -0.3543
@<TRIPOS>BOND
     1    22    23    1
     2    20    23    1
     3    20     1    1
     4     2     3   ar
     5     2    12    1
     6     4     5   ar
     7     5    24    1
     8     6     8   ar
     9     7     9   ar
    10     7     3   ar
    11    32     9    1
    12    33    32    1
    13    33    34    1
    14    33    37    1
    15    34    35    1
    16    35    36    1
    17    36    37    1
    18    26    24    1
    19    26    27    1
    20    28    31   ar
    21    29    31   ar
    22    30    27   ar
    23    10    14    1
    24    15    16   ar
    25    17    18   ar
    26    19    14   ar
    27     9     1   ar
    28    12    10   am
    29    20    21    2
    30     1     2   ar
    31     3     4   ar
    32     5     6   ar
    33     7     8   ar
    34    27    28   ar
    35    29    30   ar
    36    10    11    2
    37    14    15   ar
    38    16    17   ar
    39    18    19   ar
    40    24    25    1
    41    12    13    1
@<TRIPOS>MOLECULE
MolPort-004-987-956 CSSS00159522349 MCULE-1732611746 PubChem-45163321
 37 41 0 0 0
SMALL
GASTEIGER

@<TRIPOS>ATOM
      1 C          12.7056   37.9035    9.5191 C.ar    1  UNL1        0.1514
      2 C          14.0560   37.5519    9.6038 C.ar    1  UNL1        0.0760
      3 C          14.7713   38.7341    9.5313 C.ar    1  UNL1        0.0505
      4 C          16.1343   39.0069    9.4679 C.ar    1  UNL1        0.0202
      5 C          16.5250   40.3505    9.3395 C.ar    1  UNL1        0.0645
      6 C          15.5347   41.3600    9.2574 C.ar    1  UNL1        0.1147
      7 C          13.8472   39.7385    9.4353 C.ar    1  UNL1        0.1453
      8 N          14.2074   41.0402    9.2992 N.ar    1  UNL1       -0.2254
      9 N          12.5906   39.2566    9.4319 N.ar    1  UNL1       -0.3040
     10 C          15.2355   35.5564    8.5385 C.2     1  UNL1        0.2495
     11 O          15.6705   36.2243    7.5612 O.2     1  UNL1       -0.2698
     12 N          14.5704   36.2141    9.6238 N.am    1  UNL1       -0.2790
     13 H          14.4566   35.7020   10.4569 H       1  UNL1        0.1552
     14 C          15.4635   34.1019    8.5923 C.ar    1  UNL1        0.0537
     15 C          16.7692   33.5884    8.6197 C.ar    1  UNL1        0.0045
     16 C          16.9849   32.2083    8.6735 C.ar    1  UNL1        0.0001
     17 C          15.8971   31.3318    8.7004 C.ar    1  UNL1        0.0000
     18 C          14.5936   31.8348    8.6745 C.ar    1  UNL1        0.0001
     19 C          14.3776   33.2148    8.6207 C.ar    1  UNL1        0.0045
     20 C          11.5696   36.9555    9.5240 C.2     1  UNL1        0.3587
     21 O          10.4524   37.3114    9.0590 O.2     1  UNL1       -0.2432
     22 C          11.4142   35.3494   11.3838 C.3     1  UNL1        0.2560
     23 O          11.7328   35.6680   10.0381 O.3     1  UNL1       -0.4403
     24 N          17.9164   40.6701    9.2837 N.pl3   1  UNL1       -0.3278
     25 H          18.4818   40.4485   10.0587 H       1  UNL1        0.1472
     26 C          18.5344   41.3088    8.1315 C.3     1  UNL1        0.1176
     27 C          17.8619   42.6076    7.8589 C.ar    1  UNL1        0.0381
     28 C          17.6087   43.5905    8.7862 C.ar    1  UNL1        0.1771
     29 C          16.9396   44.3154    6.8699 C.ar    1  UNL1        0.1795
     30 C          17.4508   43.0539    6.6229 C.ar    1  UNL1        0.0412
     31 O          17.0499   44.5926    8.1508 O.2     1  UNL1       -0.4476
     32 C          11.3731   40.0446    9.2735 C.3     1  UNL1        0.1371
     33 C          11.3052   40.6500    7.8798 C.3     1  UNL1        0.1378
     34 C           9.9431   41.2629    7.6626 C.3     1  UNL1        0.0341
     35 C           9.6001   40.8927    6.2515 C.3     1  UNL1        0.0346
     36 C          10.7982   40.1031    5.7809 C.3     1  UNL1        0.1422
     37 O          11.5035   39.6575    6.9077 O.3     1  UNL1       -0.3543
@<TRIPOS>BOND
     1    22    23    1
     2    20    23    1
     3    20     1    1
     4     2     3   ar
     5     2    12    1
     6     4     5   ar
     7     5    24    1
     8     6     8   ar
     9     7     9   ar
    10     7     3   ar
    11    32     9    1
    12    33    32    1
    13    33    34    1
    14    33    37    1
    15    34    35    1
    16    35    36    1
    17    36    37    1
    18    26    24    1
    19    26    27    1
    20    28    31   ar
    21    29    31   ar
    22    30    27   ar
    23    10    14    1
    24    15    16   ar
    25    17    18   ar
    26    19    14   ar
    27     9     1   ar
    28    12    10   am
    29    20    21    2
    30     1     2   ar
    31     3     4   ar
    32     5     6   ar
    33     7     8   ar
    34    27    28   ar
    35    29    30   ar
    36    10    11    2
    37    14    15   ar
    38    16    17   ar
    39    18    19   ar
    40    24    25    1
    41    12    13    1
@<TRIPOS>MOLECULE
MolPort-004-987-956 CSSS00159522349 MCULE-1732611746 PubChem-45163321
 37 41 0 0 0
SMALL
GASTEIGER

@<TRIPOS>ATOM
      1 C          13.4322   37.4713    9.9939 C.ar    1  UNL1        0.1514
      2 C          14.7644   37.8681    9.8447 C.ar    1  UNL1        0.0760
      3 C          14.7349   39.2048    9.4887 C.ar    1  UNL1        0.0505
      4 C          15.7318   40.1023    9.1187 C.ar    1  UNL1        0.0202
      5 C          15.3376   41.4009    8.7548 C.ar    1  UNL1        0.0645
      6 C          13.9617   41.7380    8.7552 C.ar    1  UNL1        0.1147
      7 C          13.4160   39.5678    9.4628 C.ar    1  UNL1        0.1453
      8 N          13.0173   40.8144    9.1026 N.ar    1  UNL1       -0.2254
      9 N          12.6117   38.5338    9.7712 N.ar    1  UNL1       -0.3040
     10 C          16.4533   36.2444    8.8351 C.2     1  UNL1        0.2495
     11 O          16.1263   36.5075    7.6458 O.2     1  UNL1       -0.2698
     12 N          15.9058   37.0042    9.9195 N.am    1  UNL1       -0.2790
     13 H          16.3530   36.9259   10.7930 H       1  UNL1        0.1552
     14 C          17.4464   35.1907    9.1065 C.ar    1  UNL1        0.0537
     15 C          17.2059   33.8677    8.7050 C.ar    1  UNL1        0.0045
     16 C          18.1499   32.8688    8.9605 C.ar    1  UNL1        0.0001
     17 C          19.3409   33.1852    9.6189 C.ar    1  UNL1        0.0000
     18 C          19.5888   34.5003   10.0212 C.ar    1  UNL1        0.0001
     19 C          18.6451   35.4994    9.7659 C.ar    1  UNL1        0.0045
     20 C          12.9763   36.1073   10.3415 C.2     1  UNL1        0.3587
     21 O          11.7953   35.9233   10.7447 O.2     1  UNL1       -0.2432
     22 C          13.6428   33.9962    9.2638 C.3     1  UNL1        0.2560
     23 O          13.8485   35.0242   10.2203 O.3     1  UNL1       -0.4403
     24 N          16.3346   42.3536    8.3810 N.pl3   1  UNL1       -0.3278
     25 H          16.7835   42.8681    9.0902 H       1  UNL1        0.1472
     26 C          16.7154   42.5966    6.9977 C.3     1  UNL1        0.1176
     27 C          15.7956   43.5982    6.3941 C.ar    1  UNL1        0.0381
     28 C          14.5510   43.3337    5.8733 C.ar    1  UNL1        0.1771
     29 C          14.8756   45.4601    5.7365 C.ar    1  UNL1        0.1795
     30 C          16.0206   44.9550    6.3261 C.ar    1  UNL1        0.0412
     31 O          14.0386   44.4771    5.4855 O.2     1  UNL1       -0.4476
     32 C          11.1528   38.5552    9.7698 C.3     1  UNL1        0.1371
     33 C          10.6207   38.6503    8.3481 C.3     1  UNL1        0.1378
     34 C           9.9318   39.9795    8.1559 C.3     1  UNL1        0.0341
     35 C           8.7160   39.6437    7.3465 C.3     1  UNL1        0.0346
     36 C           8.8163   38.1510    7.1412 C.3     1  UNL1        0.1422
     37 O           9.6875   37.6300    8.1082 O.3     1  UNL1       -0.3543
@<TRIPOS>BOND
     1    22    23    1
     2    20    23    1
     3    20     1    1
     4     2     3   ar
     5     2    12    1
     6     4     5   ar
     7     5    24    1
     8     6     8   ar
     9     7     9   ar
    10     7     3   ar
    11    32     9    1
    12    33    32    1
    13    33    34    1
    14    33    37    1
    15    34    35    1
    16    35    36    1
    17    36    37    1
    18    26    24    1
    19    26    27    1
    20    28    31   ar
    21    29    31   ar
    22    30    27   ar
    23    10    14    1
    24    15    16   ar
    25    17    18   ar
    26    19    14   ar
    27     9     1   ar
    28    12    10   am
    29    20    21    2
    30     1     2   ar
    31     3     4   ar
    32     5     6   ar
    33     7     8   ar
    34    27    28   ar
    35    29    30   ar
    36    10    11    2
    37    14    15   ar
    38    16    17   ar
    39    18    19   ar
    40    24    25    1
    41    12    13    1
@<TRIPOS>MOLECULE
MolPort-004-987-956 CSSS00159522349 MCULE-1732611746 PubChem-45163321
 37 41 0 0 0
SMALL
GASTEIGER

@<TRIPOS>ATOM
      1 C          13.0721   41.9294    7.7408 C.ar    1  UNL1        0.1514
      2 C          12.4863   41.3266    8.8580 C.ar    1  UNL1        0.0760
      3 C          13.5090   40.6882    9.5369 C.ar    1  UNL1        0.0505
      4 C          13.5223   39.8550   10.6513 C.ar    1  UNL1        0.0202
      5 C          14.7586   39.3195   11.0503 C.ar    1  UNL1        0.0645
      6 C          15.9236   39.6229   10.3038 C.ar    1  UNL1        0.1147
      7 C          14.6560   40.9450    8.8364 C.ar    1  UNL1        0.1453
      8 N          15.8561   40.4266    9.2014 N.ar    1  UNL1       -0.2254
      9 N          14.4133   41.6996    7.7487 N.ar    1  UNL1       -0.3040
     10 C          10.3399   42.2816    9.8524 C.2     1  UNL1        0.2495
     11 O          10.8324   43.4277   10.0375 O.2     1  UNL1       -0.2698
     12 N          11.0821   41.2827    9.1423 N.am    1  UNL1       -0.2790
     13 H          10.5836   40.4967    8.8213 H       1  UNL1        0.1552
     14 C           8.9732   41.9869   10.3170 C.ar    1  UNL1        0.0537
     15 C           7.8949   42.0230    9.4195 C.ar    1  UNL1        0.0045
     16 C           6.5987   41.7408    9.8603 C.ar    1  UNL1        0.0001
     17 C           6.3712   41.4202   11.2011 C.ar    1  UNL1        0.0000
     18 C           7.4394   41.3810   12.1012 C.ar    1  UNL1        0.0001
     19 C           8.7357   41.6632   11.6607 C.ar    1  UNL1        0.0045
     20 C          12.3511   42.7013    6.7048 C.2     1  UNL1        0.3587
     21 O          12.8534   43.7657    6.2512 O.2     1  UNL1       -0.2432
     22 C          10.9929   41.0457    5.4895 C.3     1  UNL1        0.2560
     23 O          11.1192   42.2522    6.2260 O.3     1  UNL1       -0.4403
     24 N          14.8130   38.4697   12.1976 N.pl3   1  UNL1       -0.3278
     25 H          14.7588   38.8804   13.0906 H       1  UNL1        0.1472
     26 C          14.9452   37.0236   12.1036 C.3     1  UNL1        0.1176
     27 C          14.0184   36.5031   11.0626 C.ar    1  UNL1        0.0381
     28 C          14.3880   36.0028    9.8365 C.ar    1  UNL1        0.1771
     29 C          12.2478   35.8077   10.0011 C.ar    1  UNL1        0.1795
     30 C          12.6533   36.3792   11.1939 C.ar    1  UNL1        0.0412
     31 O          13.2948   35.6035    9.2317 O.2     1  UNL1       -0.4476
     32 C          15.3972   42.0986    6.7481 C.3     1  UNL1        0.1371
     33 C          16.1267   43.3587    7.1880 C.3     1  UNL1        0.1378
     34 C          16.8691   43.9472    6.0130 C.3     1  UNL1        0.0341
     35 C          18.1779   44.3876    6.5952 C.3     1  UNL1        0.0346
     36 C          18.0699   44.0171    8.0551 C.3     1  UNL1        0.1422
     37 O          17.0583   43.0563    8.1930 O.3     1  UNL1       -0.3543
@<TRIPOS>BOND
     1    22    23    1
     2    20    23    1
     3    20     1    1
     4     2     3   ar
     5     2    12    1
     6     4     5   ar
     7     5    24    1
     8     6     8   ar
     9     7     9   ar
    10     7     3   ar
    11    32     9    1
    12    33    32    1
    13    33    34    1
    14    33    37    1
    15    34    35    1
    16    35    36    1
    17    36    37    1
    18    26    24    1
    19    26    27    1
    20    28    31   ar
    21    29    31   ar
    22    30    27   ar
    23    10    14    1
    24    15    16   ar
    25    17    18   ar
    26    19    14   ar
    27     9     1   ar
    28    12    10   am
    29    20    21    2
    30     1     2   ar
    31     3     4   ar
    32     5     6   ar
    33     7     8   ar
    34    27    28   ar
    35    29    30   ar
    36    10    11    2
    37    14    15   ar
    38    16    17   ar
    39    18    19   ar
    40    24    25    1
    41    12    13    1
@<TRIPOS>MOLECULE
MolPort-004-987-956 CSSS00159522349 MCULE-1732611746 PubChem-45163321
 37 41 0 0 0
SMALL
GASTEIGER

@<TRIPOS>ATOM
      1 C          13.2309   38.1852    9.6493 C.ar    1  UNL1        0.1514
      2 C          13.0758   39.5018    9.2052 C.ar    1  UNL1        0.0760
      3 C          14.3501   40.0313    9.1045 C.ar    1  UNL1        0.0505
      4 C          14.8180   41.3082    8.8097 C.ar    1  UNL1        0.0202
      5 C          16.2064   41.5196    8.8513 C.ar    1  UNL1        0.0645
      6 C          17.0643   40.4503    9.2080 C.ar    1  UNL1        0.1147
      7 C          15.2129   39.0296    9.4571 C.ar    1  UNL1        0.1453
      8 N          16.5556   39.2200    9.5135 N.ar    1  UNL1       -0.2254
      9 N          14.5550   37.9022    9.7850 N.ar    1  UNL1       -0.3040
     10 C          11.1217   40.3308    7.7902 C.2     1  UNL1        0.2495
     11 O          11.4252   39.6163    6.7963 O.2     1  UNL1       -0.2698
     12 N          11.8260   40.1812    9.0290 N.am    1  UNL1       -0.2790
     13 H          11.4153   40.5803    9.8298 H       1  UNL1        0.1552
     14 C          10.0004   41.2816    7.6950 C.ar    1  UNL1        0.0537
     15 C           9.2468   41.3749    6.5148 C.ar    1  UNL1        0.0045
     16 C           8.1813   42.2754    6.4260 C.ar    1  UNL1        0.0001
     17 C           7.8613   43.0886    7.5162 C.ar    1  UNL1        0.0000
     18 C           8.6059   43.0013    8.6955 C.ar    1  UNL1        0.0001
     19 C           9.6715   42.1010    8.7846 C.ar    1  UNL1        0.0045
     20 C          12.1293   37.2383    9.9300 C.2     1  UNL1        0.3587
     21 O          11.0976   37.2420    9.2043 O.2     1  UNL1       -0.2432
     22 C          12.0221   34.9459   10.8220 C.3     1  UNL1        0.2560
     23 O          12.2312   36.3391   10.9928 O.3     1  UNL1       -0.4403
     24 N          16.7245   42.8147    8.5422 N.pl3   1  UNL1       -0.3278
     25 H          16.7903   43.4801    9.2648 H       1  UNL1        0.1472
     26 C          17.1590   43.1933    7.2060 C.3     1  UNL1        0.1176
     27 C          16.0371   43.8500    6.4824 C.ar    1  UNL1        0.0381
     28 C          16.0540   45.1216    5.9602 C.ar    1  UNL1        0.1771
     29 C          14.1537   44.2368    5.4585 C.ar    1  UNL1        0.1795
     30 C          14.8338   43.2609    6.1648 C.ar    1  UNL1        0.0412
     31 O          14.9031   45.3133    5.3611 O.2     1  UNL1       -0.4476
     32 C          15.1628   36.6685   10.2720 C.3     1  UNL1        0.1371
     33 C          15.4402   35.7171    9.1181 C.3     1  UNL1        0.1378
     34 C          16.9309   35.5803    8.9252 C.3     1  UNL1        0.0341
     35 C          17.1050   35.5803    7.4367 C.3     1  UNL1        0.0346
     36 C          15.6976   35.7126    6.9056 C.3     1  UNL1        0.1422
     37 O          14.8847   36.2172    7.9304 O.3     1  UNL1       -0.3543
@<TRIPOS>BOND
     1    22    23    1
     2    20    23    1
     3    20     1    1
     4     2     3   ar
     5     2    12    1
     6     4     5   ar
     7     5    24    1
     8     6     8   ar
     9     7     9   ar
    10     7     3   ar
    11    32     9    1
    12    33    32    1
    13    33    34    1
    14    33    37    1
    15    34    35    1
    16    35    36    1
    17    36    37    1
    18    26    24    1
    19    26    27    1
    20    28    31   ar
    21    29    31   ar
    22    30    27   ar
    23    10    14    1
    24    15    16   ar
    25    17    18   ar
    26    19    14   ar
    27     9     1   ar
    28    12    10   am
    29    20    21    2
    30     1     2   ar
    31     3     4   ar
    32     5     6   ar
    33     7     8   ar
    34    27    28   ar
    35    29    30   ar
    36    10    11    2
    37    14    15   ar
    38    16    17   ar
    39    18    19   ar
    40    24    25    1
    41    12    13    1
@<TRIPOS>MOLECULE
MolPort-004-987-956 CSSS00159522349 MCULE-1732611746 PubChem-45163321
 37 41 0 0 0
SMALL
GASTEIGER

@<TRIPOS>ATOM
      1 C          11.4374   39.1496    8.4135 C.ar    1  UNL1        0.1514
      2 C          12.7403   38.7314    8.6995 C.ar    1  UNL1        0.0760
      3 C          13.5365   39.8606    8.6264 C.ar    1  UNL1        0.0505
      4 C          14.9120   40.0497    8.7181 C.ar    1  UNL1        0.0202
      5 C          15.4046   41.3529    8.5350 C.ar    1  UNL1        0.0645
      6 C          14.5018   42.4055    8.2460 C.ar    1  UNL1        0.1147
      7 C          12.7007   40.9032    8.3325 C.ar    1  UNL1        0.1453
      8 N          13.1612   42.1657    8.1413 N.ar    1  UNL1       -0.2254
      9 N          11.4249   40.4943    8.2051 N.ar    1  UNL1       -0.3040
     10 C          14.4997   36.8855    8.7749 C.2     1  UNL1        0.2495
     11 O          15.4704   37.6905    8.7673 O.2     1  UNL1       -0.2698
     12 N          13.1576   37.3736    8.8919 N.am    1  UNL1       -0.2790
     13 H          12.4606   36.7186    9.1250 H       1  UNL1        0.1552
     14 C          14.7497   35.4346    8.7222 C.ar    1  UNL1        0.0537
     15 C          15.9872   34.9430    8.2793 C.ar    1  UNL1        0.0045
     16 C          16.2248   33.5662    8.2320 C.ar    1  UNL1        0.0001
     17 C          15.2273   32.6713    8.6273 C.ar    1  UNL1        0.0000
     18 C          13.9925   33.1524    9.0707 C.ar    1  UNL1        0.0001
     19 C          13.7546   34.5291    9.1181 C.ar    1  UNL1        0.0045
     20 C          10.2487   38.2711    8.3469 C.2     1  UNL1        0.3587
     21 O          10.1558   37.2801    9.1217 O.2     1  UNL1       -0.2432
     22 C           9.4458   38.4950    6.0301 C.3     1  UNL1        0.2560
     23 O           9.2291   38.5390    7.4319 O.3     1  UNL1       -0.4403
     24 N          16.8104   41.5876    8.6343 N.pl3   1  UNL1       -0.3278
     25 H          17.4157   40.8121    8.6720 H       1  UNL1        0.1472
     26 C          17.3867   42.9230    8.6820 C.3     1  UNL1        0.1176
     27 C          17.2286   43.5837    7.3584 C.ar    1  UNL1        0.0381
     28 C          17.9604   43.3032    6.2289 C.ar    1  UNL1        0.1771
     29 C          16.4975   44.7961    5.7029 C.ar    1  UNL1        0.1795
     30 C          16.2793   44.5299    7.0428 C.ar    1  UNL1        0.0412
     31 O          17.4925   44.0571    5.2630 O.2     1  UNL1       -0.4476
     32 C          10.2918   41.3328    7.8288 C.3     1  UNL1        0.1371
     33 C           9.5946   41.8768    9.0662 C.3     1  UNL1        0.1378
     34 C           8.5334   42.8672    8.6522 C.3     1  UNL1        0.0341
     35 C           8.6520   43.9684    9.6617 C.3     1  UNL1        0.0346
     36 C           9.7684   43.5109   10.5699 C.3     1  UNL1        0.1422
     37 O          10.5161   42.5365    9.8939 O.3     1  UNL1       -0.3543
@<TRIPOS>BOND
     1    22    23    1
     2    20    23    1
     3    20     1    1
     4     2     3   ar
     5     2    12    1
     6     4     5   ar
     7     5    24    1
     8     6     8   ar
     9     7     9   ar
    10     7     3   ar
    11    32     9    1
    12    33    32    1
    13    33    34    1
    14    33    37    1
    15    34    35    1
    16    35    36    1
    17    36    37    1
    18    26    24    1
    19    26    27    1
    20    28    31   ar
    21    29    31   ar
    22    30    27   ar
    23    10    14    1
    24    15    16   ar
    25    17    18   ar
    26    19    14   ar
    27     9     1   ar
    28    12    10   am
    29    20    21    2
    30     1     2   ar
    31     3     4   ar
    32     5     6   ar
    33     7     8   ar
    34    27    28   ar
    35    29    30   ar
    36    10    11    2
    37    14    15   ar
    38    16    17   ar
    39    18    19   ar
    40    24    25    1
    41    12    13    1
@<TRIPOS>MOLECULE
MolPort-004-987-956 CSSS00159522349 MCULE-1732611746 PubChem-45163321
 37 41 0 0 0
SMALL
GASTEIGER

@<TRIPOS>ATOM
      1 C           8.9366   40.9679    7.3477 C.ar    1  UNL1        0.1514
      2 C           9.7987   41.1895    8.4257 C.ar    1  UNL1        0.0760
      3 C          11.0484   41.4282    7.8820 C.ar    1  UNL1        0.0505
      4 C          12.3033   41.6149    8.4536 C.ar    1  UNL1        0.0202
      5 C          13.3968   41.7789    7.5866 C.ar    1  UNL1        0.0645
      6 C          13.1904   41.7264    6.1862 C.ar    1  UNL1        0.1147
      7 C          10.8952   41.3710    6.5236 C.ar    1  UNL1        0.1453
      8 N          11.9425   41.5158    5.6723 N.ar    1  UNL1       -0.2254
      9 N           9.6227   41.0989    6.1799 N.ar    1  UNL1       -0.3040
     10 C           9.6864   42.0345   10.8301 C.2     1  UNL1        0.2495
     11 O           9.9639   43.2242   10.5170 O.2     1  UNL1       -0.2698
     12 N           9.4547   41.0548    9.8107 N.am    1  UNL1       -0.2790
     13 H           9.0209   40.2149   10.0857 H       1  UNL1        0.1552
     14 C           9.5425   41.6641   12.2488 C.ar    1  UNL1        0.0537
     15 C          10.6550   41.2299   12.9857 C.ar    1  UNL1        0.0045
     16 C          10.5183   40.8811   14.3325 C.ar    1  UNL1        0.0001
     17 C           9.2687   40.9641   14.9521 C.ar    1  UNL1        0.0000
     18 C           8.1559   41.3966   14.2259 C.ar    1  UNL1        0.0001
     19 C           8.2923   41.7454   12.8791 C.ar    1  UNL1        0.0045
     20 C           7.4972   40.6415    7.4523 C.2     1  UNL1        0.3587
     21 O           7.0695   39.5393    7.0129 O.2     1  UNL1       -0.2432
     22 C           5.9494   41.2678    9.2618 C.3     1  UNL1        0.2560
     23 O           6.6134   41.5485    8.0393 O.3     1  UNL1       -0.4403
     24 N          14.6988   41.9854    8.1373 N.pl3   1  UNL1       -0.3278
     25 H          14.7963   42.0166    9.1165 H       1  UNL1        0.1472
     26 C          15.8872   42.1516    7.3141 C.3     1  UNL1        0.1176
     27 C          15.8921   43.5118    6.7114 C.ar    1  UNL1        0.0381
     28 C          17.0109   44.2421    6.3874 C.ar    1  UNL1        0.1771
     29 C          15.2882   45.3861    5.7799 C.ar    1  UNL1        0.1795
     30 C          14.7774   44.2205    6.3224 C.ar    1  UNL1        0.0412
     31 O          16.6019   45.3604    5.8377 O.2     1  UNL1       -0.4476
     32 C           9.1277   40.9003    4.8219 C.3     1  UNL1        0.1371
     33 C           9.1396   39.4233    4.4589 C.3     1  UNL1        0.1378
     34 C          10.5006   38.8424    4.7563 C.3     1  UNL1        0.0341
     35 C          10.7688   37.9346    3.5944 C.3     1  UNL1        0.0346
     36 C           9.5354   38.0708    2.7339 C.3     1  UNL1        0.1422
     37 O           8.8770   39.2561    3.0905 O.3     1  UNL1       -0.3543
@<TRIPOS>BOND
     1    22    23    1
     2    20    23    1
     3    20     1    1
     4     2     3   ar
     5     2    12    1
     6     4     5   ar
     7     5    24    1
     8     6     8   ar
     9     7     9   ar
    10     7     3   ar
    11    32     9    1
    12    33    32    1
    13    33    34    1
    14    33    37    1
    15    34    35    1
    16    35    36    1
    17    36    37    1
    18    26    24    1
    19    26    27    1
    20    28    31   ar
    21    29    31   ar
    22    30    27   ar
    23    10    14    1
    24    15    16   ar
    25    17    18   ar
    26    19    14   ar
    27     9     1   ar
    28    12    10   am
    29    20    21    2
    30     1     2   ar
    31     3     4   ar
    32     5     6   ar
    33     7     8   ar
    34    27    28   ar
    35    29    30   ar
    36    10    11    2
    37    14    15   ar
    38    16    17   ar
    39    18    19   ar
    40    24    25    1
    41    12    13    1
@<TRIPOS>MOLECULE
MolPort-004-987-956 CSSS00159522349 MCULE-1732611746 PubChem-45163321
 37 41 0 0 0
SMALL
GASTEIGER

@<TRIPOS>ATOM
      1 C          12.8624   38.8196    9.9334 C.ar    1  UNL1        0.1514
      2 C          14.0054   39.2882    9.2789 C.ar    1  UNL1        0.0760
      3 C          13.6365   40.4595    8.6416 C.ar    1  UNL1        0.0505
      4 C          14.3111   41.3099    7.7710 C.ar    1  UNL1        0.0202
      5 C          13.6028   42.4065    7.2512 C.ar    1  UNL1        0.0645
      6 C          12.2443   42.5915    7.6073 C.ar    1  UNL1        0.1147
      7 C          12.3196   40.6675    8.9492 C.ar    1  UNL1        0.1453
      8 N          11.6176   41.7150    8.4467 N.ar    1  UNL1       -0.2254
      9 N          11.8341   39.6885    9.7349 N.ar    1  UNL1       -0.3040
     10 C          15.4421   37.2450    8.7597 C.2     1  UNL1        0.2495
     11 O          14.5190   36.6436    8.1460 O.2     1  UNL1       -0.2698
     12 N          15.2591   38.5987    9.1923 N.am    1  UNL1       -0.2790
     13 H          16.0656   39.0994    9.4532 H       1  UNL1        0.1552
     14 C          16.7344   36.5733    8.9812 C.ar    1  UNL1        0.0537
     15 C          17.5927   37.0045   10.0042 C.ar    1  UNL1        0.0045
     16 C          18.8176   36.3649   10.2156 C.ar    1  UNL1        0.0001
     17 C          19.1931   35.2898    9.4061 C.ar    1  UNL1        0.0000
     18 C          18.3439   34.8533    8.3858 C.ar    1  UNL1        0.0001
     19 C          17.1189   35.4926    8.1741 C.ar    1  UNL1        0.0045
     20 C          12.7761   37.5716   10.7234 C.2     1  UNL1        0.3587
     21 O          13.3860   37.4814   11.8239 O.2     1  UNL1       -0.2432
     22 C          11.2739   35.6639   11.1311 C.3     1  UNL1        0.2560
     23 O          12.0186   36.4965   10.2558 O.3     1  UNL1       -0.4403
     24 N          14.2665   43.3084    6.3639 N.pl3   1  UNL1       -0.3278
     25 H          13.7620   44.0753    6.0080 H       1  UNL1        0.1472
     26 C          15.6556   43.1430    5.9631 C.3     1  UNL1        0.1176
     27 C          16.5386   43.2722    7.1535 C.ar    1  UNL1        0.0381
     28 C          16.9929   42.2343    7.9323 C.ar    1  UNL1        0.1771
     29 C          17.8648   44.0515    8.6960 C.ar    1  UNL1        0.1795
     30 C          17.0919   44.4445    7.6180 C.ar    1  UNL1        0.0412
     31 O          17.7792   42.7479    8.8479 O.2     1  UNL1       -0.4476
     32 C          10.4539   39.5637   10.1911 C.3     1  UNL1        0.1371
     33 C           9.8870   40.9261   10.5594 C.3     1  UNL1        0.1378
     34 C           9.6580   40.9902   12.0500 C.3     1  UNL1        0.0341
     35 C           8.3474   41.7044   12.1847 C.3     1  UNL1        0.0346
     36 C           7.9412   41.9917   10.7589 C.3     1  UNL1        0.1422
     37 O           8.6580   41.1327    9.9141 O.3     1  UNL1       -0.3543
@<TRIPOS>BOND
     1    22    23    1
     2    20    23    1
     3    20     1    1
     4     2     3   ar
     5     2    12    1
     6     4     5   ar
     7     5    24    1
     8     6     8   ar
     9     7     9   ar
    10     7     3   ar
    11    32     9    1
    12    33    32    1
    13    33    34    1
    14    33    37    1
    15    34    35    1
    16    35    36    1
    17    36    37    1
    18    26    24    1
    19    26    27    1
    20    28    31   ar
    21    29    31   ar
    22    30    27   ar
    23    10    14    1
    24    15    16   ar
    25    17    18   ar
    26    19    14   ar
    27     9     1   ar
    28    12    10   am
    29    20    21    2
    30     1     2   ar
    31     3     4   ar
    32     5     6   ar
    33     7     8   ar
    34    27    28   ar
    35    29    30   ar
    36    10    11    2
    37    14    15   ar
    38    16    17   ar
    39    18    19   ar
    40    24    25    1
    41    12    13    1
