@<TRIPOS>MOLECULE
MolPort-039-210-464 CSSS03436984975 MCULE-9477908329 PubChem-121017021
 18 19 0 0 0
SMALL
GASTEIGER

@<TRIPOS>ATOM
      1 C          14.1626   42.4797    7.0109 C.ar    1  UNL1        0.1040
      2 C          12.9430   43.0147    7.3555 C.ar    1  UNL1        0.1125
      3 C          14.4239   41.4254    7.8659 C.ar    1  UNL1        0.1374
      4 N          12.5046   42.2778    8.3913 N.ar    1  UNL1       -0.2456
      5 N          13.3759   41.3319    8.7074 N.ar    1  UNL1       -0.1662
      6 N          14.9989   42.9507    5.9537 N.pl3   1  UNL1       -0.2156
      7 H          14.8822   42.5696    5.0534 H       1  UNL1        0.1735
      8 C          16.8027   44.1068    7.8665 C.3     1  UNL1        0.1996
      9 S          16.2098   44.1649    6.1916 S.O2    1  UNL1        0.0559
     10 O          15.6079   45.5165    5.9318 O.2     1  UNL1       -0.1544
     11 O          17.3471   43.9407    5.2356 O.2     1  UNL1       -0.1544
     12 C          11.2551   42.4963    9.1023 C.3     1  UNL1        0.1569
     13 C          10.1805   41.5476    8.5950 C.3     1  UNL1        0.1395
     14 C           9.0861   41.3554    9.6600 C.3     1  UNL1        0.0317
     15 C           7.6845   41.4090    9.0466 C.3     1  UNL1        0.0051
     16 C           7.6337   40.6959    7.6931 C.3     1  UNL1        0.0322
     17 C           8.8818   40.9929    6.8459 C.3     1  UNL1        0.1421
     18 O           9.6405   42.0435    7.3947 O.3     1  UNL1       -0.3542
@<TRIPOS>BOND
     1     8     9    1
     2     2     4   ar
     3    12     4    1
     4    13    12    1
     5    13    14    1
     6    13    18    1
     7    14    15    1
     8    15    16    1
     9    16    17    1
    10    17    18    1
    11     3     1   ar
    12     9     6    1
    13     6     1    1
    14     4     5   ar
    15     1     2   ar
    16     3     5   ar
    17     9    10    2
    18     9    11    2
    19     6     7    1
@<TRIPOS>MOLECULE
MolPort-039-210-464 CSSS03436984975 MCULE-9477908329 PubChem-121017021
 18 19 0 0 0
SMALL
GASTEIGER

@<TRIPOS>ATOM
      1 C          14.4057   42.4038    7.1101 C.ar    1  UNL1        0.1040
      2 C          13.0625   42.3839    7.4068 C.ar    1  UNL1        0.1125
      3 C          15.0515   41.5610    7.9953 C.ar    1  UNL1        0.1374
      4 N          12.9341   41.5392    8.4450 N.ar    1  UNL1       -0.2456
      5 N          14.1082   41.0453    8.8073 N.ar    1  UNL1       -0.1662
      6 N          15.0072   43.1726    6.0681 N.pl3   1  UNL1       -0.2156
      7 H          14.6816   43.0558    5.1463 H       1  UNL1        0.1735
      8 C          17.7933   43.7121    5.6251 C.3     1  UNL1        0.1996
      9 S          16.2863   44.3020    6.3606 S.O2    1  UNL1        0.0559
     10 O          16.4873   44.4436    7.8425 O.2     1  UNL1       -0.1544
     11 O          15.9222   45.6408    5.7833 O.2     1  UNL1       -0.1544
     12 C          11.6825   41.2219    9.1139 C.3     1  UNL1        0.1569
     13 C          10.7367   42.4117    9.0668 C.3     1  UNL1        0.1395
     14 C           9.4672   42.0588    8.2713 C.3     1  UNL1        0.0317
     15 C           8.2030   42.5662    8.9697 C.3     1  UNL1        0.0051
     16 C           8.4161   43.9516    9.5848 C.3     1  UNL1        0.0322
     17 C           9.7944   44.0709   10.2554 C.3     1  UNL1        0.1421
     18 O          10.4203   42.8162   10.3762 O.3     1  UNL1       -0.3542
@<TRIPOS>BOND
     1     8     9    1
     2     2     4   ar
     3    12     4    1
     4    13    12    1
     5    13    14    1
     6    13    18    1
     7    14    15    1
     8    15    16    1
     9    16    17    1
    10    17    18    1
    11     3     1   ar
    12     9     6    1
    13     6     1    1
    14     4     5   ar
    15     1     2   ar
    16     3     5   ar
    17     9    10    2
    18     9    11    2
    19     6     7    1
@<TRIPOS>MOLECULE
MolPort-039-210-464 CSSS03436984975 MCULE-9477908329 PubChem-121017021
 18 19 0 0 0
SMALL
GASTEIGER

@<TRIPOS>ATOM
      1 C          14.1567   42.5099    7.0114 C.ar    1  UNL1        0.1040
      2 C          14.2760   41.5108    7.9496 C.ar    1  UNL1        0.1125
      3 C          13.0163   42.2656    6.2693 C.ar    1  UNL1        0.1374
      4 N          13.2181   40.7040    7.7549 N.ar    1  UNL1       -0.2456
      5 N          12.4629   41.1385    6.7576 N.ar    1  UNL1       -0.1662
      6 N          15.0671   43.5976    6.8471 N.pl3   1  UNL1       -0.2156
      7 H          14.7262   44.4493    6.4900 H       1  UNL1        0.1735
      8 C          17.7387   43.8510    5.8235 C.3     1  UNL1        0.1996
      9 S          16.7464   43.4785    7.2506 S.O2    1  UNL1        0.0559
     10 O          17.0449   42.0772    7.7024 O.2     1  UNL1       -0.1544
     11 O          17.0690   44.4338    8.3647 O.2     1  UNL1       -0.1544
     12 C          12.9411   39.4928    8.5104 C.3     1  UNL1        0.1569
     13 C          14.0914   39.1786    9.4539 C.3     1  UNL1        0.1395
     14 C          13.7791   39.6892   10.8719 C.3     1  UNL1        0.0317
     15 C          14.1577   38.6597   11.9398 C.3     1  UNL1        0.0051
     16 C          15.4743   37.9556   11.6026 C.3     1  UNL1        0.0322
     17 C          15.5725   37.6182   10.1059 C.3     1  UNL1        0.1421
     18 O          14.3373   37.7937    9.4548 O.3     1  UNL1       -0.3542
@<TRIPOS>BOND
     1     8     9    1
     2     2     4   ar
     3    12     4    1
     4    13    12    1
     5    13    14    1
     6    13    18    1
     7    14    15    1
     8    15    16    1
     9    16    17    1
    10    17    18    1
    11     3     1   ar
    12     9     6    1
    13     6     1    1
    14     4     5   ar
    15     1     2   ar
    16     3     5   ar
    17     9    10    2
    18     9    11    2
    19     6     7    1
@<TRIPOS>MOLECULE
MolPort-039-210-464 CSSS03436984975 MCULE-9477908329 PubChem-121017021
 18 19 0 0 0
SMALL
GASTEIGER

@<TRIPOS>ATOM
      1 C          10.5291   41.4845    6.2781 C.ar    1  UNL1        0.1040
      2 C          11.4439   42.1490    7.0617 C.ar    1  UNL1        0.1125
      3 C          10.9578   40.1780    6.1352 C.ar    1  UNL1        0.1374
      4 N          12.3845   41.2390    7.3701 N.ar    1  UNL1       -0.2456
      5 N          12.1102   40.0643    6.8237 N.ar    1  UNL1       -0.1662
      6 N           9.3514   42.0642    5.7163 N.pl3   1  UNL1       -0.2156
      7 H           9.4252   42.5527    4.8647 H       1  UNL1        0.1735
      8 C           7.8463   42.7086    8.0761 C.3     1  UNL1        0.1996
      9 S           7.7989   41.9425    6.4727 S.O2    1  UNL1        0.0559
     10 O           7.4430   40.4920    6.6333 O.2     1  UNL1       -0.1544
     11 O           6.7629   42.6112    5.6139 O.2     1  UNL1       -0.1544
     12 C          13.5694   41.5009    8.1714 C.3     1  UNL1        0.1569
     13 C          14.6956   42.0325    7.2991 C.3     1  UNL1        0.1395
     14 C          14.1404   42.9834    6.2237 C.3     1  UNL1        0.0317
     15 C          15.0039   44.2391    6.0789 C.3     1  UNL1        0.0051
     16 C          16.4958   43.9123    6.1808 C.3     1  UNL1        0.0322
     17 C          16.7782   42.8788    7.2834 C.3     1  UNL1        0.1421
     18 O          15.6523   42.6777    8.1034 O.3     1  UNL1       -0.3542
@<TRIPOS>BOND
     1     8     9    1
     2     2     4   ar
     3    12     4    1
     4    13    12    1
     5    13    14    1
     6    13    18    1
     7    14    15    1
     8    15    16    1
     9    16    17    1
    10    17    18    1
    11     3     1   ar
    12     9     6    1
    13     6     1    1
    14     4     5   ar
    15     1     2   ar
    16     3     5   ar
    17     9    10    2
    18     9    11    2
    19     6     7    1
@<TRIPOS>MOLECULE
MolPort-039-210-464 CSSS03436984975 MCULE-9477908329 PubChem-121017021
 18 19 0 0 0
SMALL
GASTEIGER

@<TRIPOS>ATOM
      1 C           9.4403   39.7547    6.0877 C.ar    1  UNL1        0.1040
      2 C          10.1568   39.5770    7.2486 C.ar    1  UNL1        0.1125
      3 C           9.2643   41.1126    5.8977 C.ar    1  UNL1        0.1374
      4 N          10.3945   40.8137    7.7196 N.ar    1  UNL1       -0.2456
      5 N           9.8671   41.7358    6.9289 N.ar    1  UNL1       -0.1662
      6 N           8.9665   38.7047    5.2440 N.pl3   1  UNL1       -0.2156
      7 H           8.2306   38.1354    5.5660 H       1  UNL1        0.1735
      8 C          11.3801   38.7271    3.6873 C.3     1  UNL1        0.1996
      9 S           9.6342   38.3928    3.6775 S.O2    1  UNL1        0.0559
     10 O           8.9694   39.2900    2.6726 O.2     1  UNL1       -0.1544
     11 O           9.3872   36.9602    3.2973 O.2     1  UNL1       -0.1544
     12 C          11.1082   41.1161    8.9500 C.3     1  UNL1        0.1569
     13 C          12.4682   40.4361    8.9579 C.3     1  UNL1        0.1395
     14 C          13.3777   41.0392    7.8725 C.3     1  UNL1        0.0317
     15 C          14.7957   41.2837    8.3947 C.3     1  UNL1        0.0051
     16 C          15.2646   40.1472    9.3067 C.3     1  UNL1        0.0322
     17 C          14.1445   39.6725   10.2466 C.3     1  UNL1        0.1421
     18 O          13.0496   40.5565   10.2330 O.3     1  UNL1       -0.3542
@<TRIPOS>BOND
     1     8     9    1
     2     2     4   ar
     3    12     4    1
     4    13    12    1
     5    13    14    1
     6    13    18    1
     7    14    15    1
     8    15    16    1
     9    16    17    1
    10    17    18    1
    11     3     1   ar
    12     9     6    1
    13     6     1    1
    14     4     5   ar
    15     1     2   ar
    16     3     5   ar
    17     9    10    2
    18     9    11    2
    19     6     7    1
@<TRIPOS>MOLECULE
MolPort-039-210-464 CSSS03436984975 MCULE-9477908329 PubChem-121017021
 18 19 0 0 0
SMALL
GASTEIGER

@<TRIPOS>ATOM
      1 C           8.5528   42.8666   10.0518 C.ar    1  UNL1        0.1040
      2 C           9.3167   41.8983    9.4424 C.ar    1  UNL1        0.1125
      3 C           9.4051   43.8403   10.5380 C.ar    1  UNL1        0.1374
      4 N          10.5906   42.3088    9.5710 N.ar    1  UNL1       -0.2456
      5 N          10.6584   43.4595   10.2228 N.ar    1  UNL1       -0.1662
      6 N           7.1290   42.8465   10.1570 N.pl3   1  UNL1       -0.2156
      7 H           6.7206   42.8843   11.0520 H       1  UNL1        0.1735
      8 C           4.4863   43.4042    9.1798 C.3     1  UNL1        0.1996
      9 S           6.0919   42.7583    8.7736 S.O2    1  UNL1        0.0559
     10 O           5.9508   41.3222    8.3560 O.2     1  UNL1       -0.1544
     11 O           6.6903   43.5435    7.6407 O.2     1  UNL1       -0.1544
     12 C          11.7550   41.5820    9.0908 C.3     1  UNL1        0.1569
     13 C          12.1721   40.5200   10.0960 C.3     1  UNL1        0.1395
     14 C          11.4179   39.2043    9.8329 C.3     1  UNL1        0.0317
     15 C          12.3479   37.9917    9.9232 C.3     1  UNL1        0.0051
     16 C          13.3527   38.1358   11.0690 C.3     1  UNL1        0.0322
     17 C          13.9049   39.5674   11.1652 C.3     1  UNL1        0.1421
     18 O          13.5642   40.3296   10.0324 O.3     1  UNL1       -0.3542
@<TRIPOS>BOND
     1     8     9    1
     2     2     4   ar
     3    12     4    1
     4    13    12    1
     5    13    14    1
     6    13    18    1
     7    14    15    1
     8    15    16    1
     9    16    17    1
    10    17    18    1
    11     3     1   ar
    12     9     6    1
    13     6     1    1
    14     4     5   ar
    15     1     2   ar
    16     3     5   ar
    17     9    10    2
    18     9    11    2
    19     6     7    1
@<TRIPOS>MOLECULE
MolPort-039-210-464 CSSS03436984975 MCULE-9477908329 PubChem-121017021
 18 19 0 0 0
SMALL
GASTEIGER

@<TRIPOS>ATOM
      1 C          10.7708   41.4203    9.3266 C.ar    1  UNL1        0.1040
      2 C          11.5609   41.6369    8.2214 C.ar    1  UNL1        0.1125
      3 C          11.5533   40.8325   10.3029 C.ar    1  UNL1        0.1374
      4 N          12.7822   41.1848    8.5560 N.ar    1  UNL1       -0.2456
      5 N          12.7916   40.7011    9.7887 N.ar    1  UNL1       -0.1662
      6 N           9.3846   41.7485    9.4245 N.pl3   1  UNL1       -0.2156
      7 H           9.0765   42.2718   10.1994 H       1  UNL1        0.1735
      8 C           6.5897   41.3060    8.9328 C.3     1  UNL1        0.1996
      9 S           8.2241   41.2630    8.2351 S.O2    1  UNL1        0.0559
     10 O           8.5312   39.8606    7.7928 O.2     1  UNL1       -0.1544
     11 O           8.3006   42.1811    7.0480 O.2     1  UNL1       -0.1544
     12 C          13.9436   41.1903    7.6809 C.3     1  UNL1        0.1569
     13 C          14.3174   42.6143    7.3005 C.3     1  UNL1        0.1395
     14 C          15.8100   42.8704    7.5753 C.3     1  UNL1        0.0317
     15 C          16.4749   43.6288    6.4237 C.3     1  UNL1        0.0051
     16 C          15.5560   44.7147    5.8586 C.3     1  UNL1        0.0322
     17 C          14.1005   44.2308    5.7534 C.3     1  UNL1        0.1421
     18 O          14.0031   42.8405    5.9484 O.3     1  UNL1       -0.3542
@<TRIPOS>BOND
     1     8     9    1
     2     2     4   ar
     3    12     4    1
     4    13    12    1
     5    13    14    1
     6    13    18    1
     7    14    15    1
     8    15    16    1
     9    16    17    1
    10    17    18    1
    11     3     1   ar
    12     9     6    1
    13     6     1    1
    14     4     5   ar
    15     1     2   ar
    16     3     5   ar
    17     9    10    2
    18     9    11    2
    19     6     7    1
@<TRIPOS>MOLECULE
MolPort-039-210-464 CSSS03436984975 MCULE-9477908329 PubChem-121017021
 18 19 0 0 0
SMALL
GASTEIGER

@<TRIPOS>ATOM
      1 C           9.4237   41.1400    8.2844 C.ar    1  UNL1        0.1040
      2 C          10.7534   40.8842    8.0415 C.ar    1  UNL1        0.1125
      3 C           8.8941   41.7512    7.1633 C.ar    1  UNL1        0.1374
      4 N          10.9871   41.3371    6.7972 N.ar    1  UNL1       -0.2456
      5 N           9.8921   41.8578    6.2646 N.ar    1  UNL1       -0.1662
      6 N           8.7325   40.8252    9.4936 N.pl3   1  UNL1       -0.2156
      7 H           8.7534   39.8973    9.8220 H       1  UNL1        0.1735
      8 C           6.1674   42.0636    9.8621 C.3     1  UNL1        0.1996
      9 S           7.8592   42.0099   10.4051 S.O2    1  UNL1        0.0559
     10 O           8.4864   43.3575   10.1876 O.2     1  UNL1       -0.1544
     11 O           7.9192   41.6696   11.8675 O.2     1  UNL1       -0.1544
     12 C          12.2741   41.2965    6.1215 C.3     1  UNL1        0.1569
     13 C          13.1619   42.4356    6.5973 C.3     1  UNL1        0.1395
     14 C          14.1899   41.9245    7.6224 C.3     1  UNL1        0.0317
     15 C          15.5844   42.4985    7.3590 C.3     1  UNL1        0.0051
     16 C          15.5189   43.9692    6.9398 C.3     1  UNL1        0.0322
     17 C          14.3565   44.2332    5.9688 C.3     1  UNL1        0.1421
     18 O          13.7976   43.0323    5.4936 O.3     1  UNL1       -0.3542
@<TRIPOS>BOND
     1     8     9    1
     2     2     4   ar
     3    12     4    1
     4    13    12    1
     5    13    14    1
     6    13    18    1
     7    14    15    1
     8    15    16    1
     9    16    17    1
    10    17    18    1
    11     3     1   ar
    12     9     6    1
    13     6     1    1
    14     4     5   ar
    15     1     2   ar
    16     3     5   ar
    17     9    10    2
    18     9    11    2
    19     6     7    1
@<TRIPOS>MOLECULE
MolPort-039-210-464 CSSS03436984975 MCULE-9477908329 PubChem-121017021
 18 19 0 0 0
SMALL
GASTEIGER

@<TRIPOS>ATOM
      1 C          10.6828   40.9504    5.9129 C.ar    1  UNL1        0.1040
      2 C           9.9305   41.7501    6.7418 C.ar    1  UNL1        0.1125
      3 C          11.7529   40.4662    6.6418 C.ar    1  UNL1        0.1374
      4 N          10.5545   41.7247    7.9326 N.ar    1  UNL1       -0.2456
      5 N          11.6406   40.9684    7.8869 N.ar    1  UNL1       -0.1662
      6 N          10.3930   40.6846    4.5402 N.pl3   1  UNL1       -0.2156
      7 H          10.5982   41.3772    3.8713 H       1  UNL1        0.1735
      8 C          10.9818   38.0381    3.5923 C.3     1  UNL1        0.1996
      9 S           9.6953   39.1933    4.0052 S.O2    1  UNL1        0.0559
     10 O           8.8591   39.4522    2.7843 O.2     1  UNL1       -0.1544
     11 O           8.8221   38.6249    5.0880 O.2     1  UNL1       -0.1544
     12 C          10.1244   42.4509    9.1167 C.3     1  UNL1        0.1569
     13 C           8.9399   41.7545    9.7679 C.3     1  UNL1        0.1395
     14 C           9.2287   41.4782   11.2542 C.3     1  UNL1        0.0317
     15 C           8.0240   41.8156   12.1365 C.3     1  UNL1        0.0051
     16 C           6.7071   41.4013   11.4752 C.3     1  UNL1        0.0322
     17 C           6.7013   41.7178    9.9707 C.3     1  UNL1        0.1421
     18 O           7.7846   42.5414    9.6120 O.3     1  UNL1       -0.3542
@<TRIPOS>BOND
     1     8     9    1
     2     2     4   ar
     3    12     4    1
     4    13    12    1
     5    13    14    1
     6    13    18    1
     7    14    15    1
     8    15    16    1
     9    16    17    1
    10    17    18    1
    11     3     1   ar
    12     9     6    1
    13     6     1    1
    14     4     5   ar
    15     1     2   ar
    16     3     5   ar
    17     9    10    2
    18     9    11    2
    19     6     7    1
@<TRIPOS>MOLECULE
MolPort-039-210-464 CSSS03436984975 MCULE-9477908329 PubChem-121017021
 18 19 0 0 0
SMALL
GASTEIGER

@<TRIPOS>ATOM
      1 C           8.3786   42.4527    9.7203 C.ar    1  UNL1        0.1040
      2 C           8.9236   41.3700    9.0697 C.ar    1  UNL1        0.1125
      3 C           9.3843   43.3787    9.9255 C.ar    1  UNL1        0.1374
      4 N          10.2234   41.6680    8.8981 N.ar    1  UNL1       -0.2456
      5 N          10.5120   42.8571    9.4047 N.ar    1  UNL1       -0.1662
      6 N           7.0107   42.5754   10.1108 N.pl3   1  UNL1       -0.2156
      7 H           6.7981   42.6558   11.0687 H       1  UNL1        0.1735
      8 C           6.2068   43.4590    7.4988 C.3     1  UNL1        0.1996
      9 S           5.7110   42.5883    8.9672 S.O2    1  UNL1        0.0559
     10 O           4.5285   43.2872    9.5752 O.2     1  UNL1       -0.1544
     11 O           5.3250   41.1775    8.6226 O.2     1  UNL1       -0.1544
     12 C          11.2040   40.7978    8.2689 C.3     1  UNL1        0.1569
     13 C          12.6115   41.3223    8.5056 C.3     1  UNL1        0.1395
     14 C          13.2792   40.5659    9.6679 C.3     1  UNL1        0.0317
     15 C          14.7279   40.1935    9.3420 C.3     1  UNL1        0.0051
     16 C          15.4431   41.3173    8.5881 C.3     1  UNL1        0.0322
     17 C          14.5330   41.9620    7.5299 C.3     1  UNL1        0.1421
     18 O          13.3646   41.2054    7.3234 O.3     1  UNL1       -0.3542
@<TRIPOS>BOND
     1     8     9    1
     2     2     4   ar
     3    12     4    1
     4    13    12    1
     5    13    14    1
     6    13    18    1
     7    14    15    1
     8    15    16    1
     9    16    17    1
    10    17    18    1
    11     3     1   ar
    12     9     6    1
    13     6     1    1
    14     4     5   ar
    15     1     2   ar
    16     3     5   ar
    17     9    10    2
    18     9    11    2
    19     6     7    1
