@<TRIPOS>MOLECULE
MolPort-016-648-860 CSSS00160367009 MCULE-7229641129 PubChem-56832365
 26 28 0 0 0
SMALL
GASTEIGER

@<TRIPOS>ATOM
      1 C          14.4327   40.9236    8.0540 C.3     1  UNL1        0.0989
      2 C          15.1691   40.6419    9.3725 C.3     1  UNL1        0.0221
      3 C          15.2239   39.1538    9.6866 C.3     1  UNL1        0.0018
      4 C          13.8347   38.5546    9.8334 C.3     1  UNL1        0.0015
      5 C          13.1990   38.4171    8.4615 C.3     1  UNL1        0.0173
      6 C          12.3155   39.6207    8.1159 C.3     1  UNL1        0.0727
      7 N          12.9612   40.9438    8.1747 N.3     1  UNL1       -0.2653
      8 C          12.9673   42.4253    5.8418 C.3     1  UNL1        0.1534
      9 C          16.0206   44.0004    6.8001 C.ar    1  UNL1        0.1327
     10 C          16.0652   42.9044    7.6434 C.ar    1  UNL1        0.0929
     11 C          14.9263   42.1680    7.3694 C.ar    1  UNL1        0.0821
     12 N          14.2421   42.8224    6.4158 N.ar    1  UNL1       -0.2507
     13 N          14.8915   43.9194    6.0638 N.ar    1  UNL1       -0.1670
     14 CL         17.3350   42.5627    8.8051 Cl      1  UNL1       -0.0793
     15 C          12.4992   41.6463    9.3714 C.3     1  UNL1        0.0994
     16 C          11.0134   41.5613    9.4774 C.ar    1  UNL1       -0.0061
     17 C          10.2164   42.0105    8.4211 C.ar    1  UNL1       -0.0016
     18 C           8.8234   41.9395    8.5134 C.ar    1  UNL1        0.0144
     19 C           8.2151   41.4225    9.6624 C.ar    1  UNL1        0.0503
     20 C           9.0190   40.9786   10.7236 C.ar    1  UNL1        0.0144
     21 C          10.4118   41.0490   10.6323 C.ar    1  UNL1       -0.0016
     22 C           5.9680   41.4391   10.8950 C.2     1  UNL1        0.2266
     23 C           4.4901   41.3636   10.7612 C.3     1  UNL1        0.0949
     24 N           6.7832   41.3655    9.7186 N.am    1  UNL1       -0.2839
     25 O           6.4783   41.5659   12.0391 O.2     1  UNL1       -0.2748
     26 H           6.3115   41.2654    8.8603 H       1  UNL1        0.1549
@<TRIPOS>BOND
     1     8    12    1
     2     9    10   ar
     3    10    14    1
     4    11    12   ar
     5     1    11    1
     6     1     2    1
     7     1     7    1
     8     2     3    1
     9     3     4    1
    10     4     5    1
    11     5     6    1
    12     6     7    1
    13    15     7    1
    14    15    16    1
    15    17    18   ar
    16    19    24    1
    17    19    20   ar
    18    23    22    1
    19    21    16   ar
    20    12    13   ar
    21    24    22   am
    22     9    13   ar
    23    10    11   ar
    24    16    17   ar
    25    18    19   ar
    26    22    25    2
    27    20    21   ar
    28    24    26    1
@<TRIPOS>MOLECULE
MolPort-016-648-860 CSSS00160367009 MCULE-7229641129 PubChem-56832365
 26 28 0 0 0
SMALL
GASTEIGER

@<TRIPOS>ATOM
      1 C          13.4962   40.3148    8.4446 C.3     1  UNL1        0.0989
      2 C          14.4480   40.2519    9.6489 C.3     1  UNL1        0.0221
      3 C          14.5954   38.8348   10.1838 C.3     1  UNL1        0.0018
      4 C          13.2668   38.2666   10.6556 C.3     1  UNL1        0.0015
      5 C          12.4172   37.9073    9.4497 C.3     1  UNL1        0.0173
      6 C          11.4555   39.0380    9.0686 C.3     1  UNL1        0.0727
      7 N          12.0649   40.3535    8.8055 N.3     1  UNL1       -0.2653
      8 C          11.6694   41.3900    6.2530 C.3     1  UNL1        0.1534
      9 C          14.7596   43.1574    6.4737 C.ar    1  UNL1        0.1327
     10 C          14.9695   42.2231    7.4724 C.ar    1  UNL1        0.0929
     11 C          13.8349   41.4315    7.4964 C.ar    1  UNL1        0.0821
     12 N          12.9951   41.9011    6.5582 N.ar    1  UNL1       -0.2507
     13 N          13.5415   42.9322    5.9360 N.ar    1  UNL1       -0.1670
     14 CL         16.4049   42.1071    8.4749 Cl      1  UNL1       -0.0793
     15 C          11.7876   41.2410    9.9343 C.3     1  UNL1        0.0994
     16 C          10.4863   41.9419    9.7312 C.ar    1  UNL1       -0.0061
     17 C           9.4068   41.2514    9.1737 C.ar    1  UNL1       -0.0016
     18 C           8.1851   41.9011    8.9750 C.ar    1  UNL1        0.0144
     19 C           8.0327   43.2464    9.3282 C.ar    1  UNL1        0.0503
     20 C           9.1212   43.9380    9.8816 C.ar    1  UNL1        0.0144
     21 C          10.3430   43.2893   10.0808 C.ar    1  UNL1       -0.0016
     22 C           6.1610   44.1752    7.8438 C.2     1  UNL1        0.2266
     23 C           4.8305   44.8356    7.8094 C.3     1  UNL1        0.0949
     24 N           6.7635   43.8773    9.1096 N.am    1  UNL1       -0.2839
     25 O           6.7362   43.8891    6.7608 O.2     1  UNL1       -0.2748
     26 H           6.2533   44.1323    9.9121 H       1  UNL1        0.1549
@<TRIPOS>BOND
     1     8    12    1
     2     9    10   ar
     3    10    14    1
     4    11    12   ar
     5     1    11    1
     6     1     2    1
     7     1     7    1
     8     2     3    1
     9     3     4    1
    10     4     5    1
    11     5     6    1
    12     6     7    1
    13    15     7    1
    14    15    16    1
    15    17    18   ar
    16    19    24    1
    17    19    20   ar
    18    23    22    1
    19    21    16   ar
    20    12    13   ar
    21    24    22   am
    22     9    13   ar
    23    10    11   ar
    24    16    17   ar
    25    18    19   ar
    26    22    25    2
    27    20    21   ar
    28    24    26    1
@<TRIPOS>MOLECULE
MolPort-016-648-860 CSSS00160367009 MCULE-7229641129 PubChem-56832365
 26 28 0 0 0
SMALL
GASTEIGER

@<TRIPOS>ATOM
      1 C           8.6483   40.9935    7.8885 C.3     1  UNL1        0.0989
      2 C           7.8296   41.0467    6.5896 C.3     1  UNL1        0.0221
      3 C           7.2926   39.6773    6.1993 C.3     1  UNL1        0.0018
      4 C           8.4121   38.6769    5.9613 C.3     1  UNL1        0.0015
      5 C           9.0021   38.2561    7.2954 C.3     1  UNL1        0.0173
      6 C          10.2331   39.0900    7.6665 C.3     1  UNL1        0.0727
      7 N          10.0451   40.5509    7.7060 N.3     1  UNL1       -0.2653
      8 C          10.0642   41.5316   10.5346 C.3     1  UNL1        0.1534
      9 C           8.3011   44.3764    9.3014 C.ar    1  UNL1        0.1327
     10 C           7.9840   43.4721    8.3033 C.ar    1  UNL1        0.0929
     11 C           8.5967   42.2836    8.6590 C.ar    1  UNL1        0.0821
     12 N           9.2559   42.4980    9.8102 N.ar    1  UNL1       -0.2507
     13 N           9.0814   43.7475   10.2066 N.ar    1  UNL1       -0.1670
     14 CL          6.9968   43.8142    6.8936 Cl      1  UNL1       -0.0793
     15 C          10.6799   41.1446    6.5298 C.3     1  UNL1        0.0994
     16 C          12.0936   41.5100    6.8365 C.ar    1  UNL1       -0.0061
     17 C          12.7557   42.4474    6.0392 C.ar    1  UNL1       -0.0016
     18 C          14.0818   42.7924    6.3159 C.ar    1  UNL1        0.0144
     19 C          14.7583   42.2016    7.3886 C.ar    1  UNL1        0.0503
     20 C          14.0919   41.2558    8.1828 C.ar    1  UNL1        0.0144
     21 C          12.7661   40.9103    7.9072 C.ar    1  UNL1       -0.0016
     22 C          16.6997   43.8746    7.4263 C.2     1  UNL1        0.2266
     23 C          18.1346   44.0879    7.7476 C.3     1  UNL1        0.0949
     24 N          16.1178   42.5826    7.6407 N.am    1  UNL1       -0.2839
     25 O          16.0203   44.8320    6.9712 O.2     1  UNL1       -0.2748
     26 H          16.7128   41.8843    7.9979 H       1  UNL1        0.1549
@<TRIPOS>BOND
     1     8    12    1
     2     9    10   ar
     3    10    14    1
     4    11    12   ar
     5     1    11    1
     6     1     2    1
     7     1     7    1
     8     2     3    1
     9     3     4    1
    10     4     5    1
    11     5     6    1
    12     6     7    1
    13    15     7    1
    14    15    16    1
    15    17    18   ar
    16    19    24    1
    17    19    20   ar
    18    23    22    1
    19    21    16   ar
    20    12    13   ar
    21    24    22   am
    22     9    13   ar
    23    10    11   ar
    24    16    17   ar
    25    18    19   ar
    26    22    25    2
    27    20    21   ar
    28    24    26    1
@<TRIPOS>MOLECULE
MolPort-016-648-860 CSSS00160367009 MCULE-7229641129 PubChem-56832365
 26 28 0 0 0
SMALL
GASTEIGER

@<TRIPOS>ATOM
      1 C           8.3859   41.4908    8.5353 C.3     1  UNL1        0.0989
      2 C           8.5248   42.9806    8.1871 C.3     1  UNL1        0.0221
      3 C           9.2370   43.7572    9.2852 C.3     1  UNL1        0.0018
      4 C           8.4841   43.6923   10.6041 C.3     1  UNL1        0.0015
      5 C           8.6674   42.3168   11.2202 C.3     1  UNL1        0.0173
      6 C           7.5166   41.3703   10.8621 C.3     1  UNL1        0.0727
      7 N           7.2494   41.1805    9.4255 N.3     1  UNL1       -0.2653
      8 C           6.9095   42.1061    5.9395 C.3     1  UNL1        0.1534
      9 C           8.7534   39.0562    5.7969 C.ar    1  UNL1        0.1327
     10 C           9.0383   39.4240    7.1000 C.ar    1  UNL1        0.0929
     11 C           8.3608   40.6109    7.3162 C.ar    1  UNL1        0.0821
     12 N           7.7223   40.9248    6.1763 N.ar    1  UNL1       -0.2507
     13 N           7.9467   39.9972    5.2608 N.ar    1  UNL1       -0.1670
     14 CL         10.0569   38.5281    8.2129 Cl      1  UNL1       -0.0793
     15 C           6.0324   41.9082    9.0674 C.3     1  UNL1        0.0994
     16 C           5.0020   41.7456   10.1342 C.ar    1  UNL1       -0.0061
     17 C           4.1591   42.8138   10.4523 C.ar    1  UNL1       -0.0016
     18 C           3.1941   42.6724   11.4537 C.ar    1  UNL1        0.0144
     19 C           3.0654   41.4644   12.1478 C.ar    1  UNL1        0.0503
     20 C           3.9182   40.3962   11.8298 C.ar    1  UNL1        0.0144
     21 C           4.8833   40.5365   10.8287 C.ar    1  UNL1       -0.0016
     22 C           0.9159   42.2016   13.3332 C.2     1  UNL1        0.2266
     23 C          -0.0230   41.9400   14.4546 C.3     1  UNL1        0.0949
     24 N           2.0627   41.3583   13.1677 N.am    1  UNL1       -0.2839
     25 O           0.6881   43.1596   12.5483 O.2     1  UNL1       -0.2748
     26 H           2.1737   40.6309   13.8217 H       1  UNL1        0.1549
@<TRIPOS>BOND
     1     8    12    1
     2     9    10   ar
     3    10    14    1
     4    11    12   ar
     5     1    11    1
     6     1     2    1
     7     1     7    1
     8     2     3    1
     9     3     4    1
    10     4     5    1
    11     5     6    1
    12     6     7    1
    13    15     7    1
    14    15    16    1
    15    17    18   ar
    16    19    24    1
    17    19    20   ar
    18    23    22    1
    19    21    16   ar
    20    12    13   ar
    21    24    22   am
    22     9    13   ar
    23    10    11   ar
    24    16    17   ar
    25    18    19   ar
    26    22    25    2
    27    20    21   ar
    28    24    26    1
@<TRIPOS>MOLECULE
MolPort-016-648-860 CSSS00160367009 MCULE-7229641129 PubChem-56832365
 26 28 0 0 0
SMALL
GASTEIGER

@<TRIPOS>ATOM
      1 C           8.8607   41.0838    8.0619 C.3     1  UNL1        0.0989
      2 C           7.9756   41.4313    6.8553 C.3     1  UNL1        0.0221
      3 C           7.1725   40.2312    6.3749 C.3     1  UNL1        0.0018
      4 C           8.0718   39.0880    5.9334 C.3     1  UNL1        0.0015
      5 C           8.6684   38.4164    7.1573 C.3     1  UNL1        0.0173
      6 C          10.0535   38.9753    7.5001 C.3     1  UNL1        0.0727
      7 N          10.1374   40.4316    7.7084 N.3     1  UNL1       -0.2653
      8 C           7.4605   43.7841    7.8514 C.3     1  UNL1        0.1534
      9 C           9.7159   43.6026   10.6086 C.ar    1  UNL1        0.1327
     10 C           9.9135   42.3392   10.0801 C.ar    1  UNL1        0.0929
     11 C           9.0990   42.2628    8.9641 C.ar    1  UNL1        0.0821
     12 N           8.4439   43.4317    8.8617 N.ar    1  UNL1       -0.2507
     13 N           8.8099   44.2437    9.8393 N.ar    1  UNL1       -0.1670
     14 CL         10.9937   41.1192   10.7309 Cl      1  UNL1       -0.0793
     15 C          10.7847   41.0420    6.5477 C.3     1  UNL1        0.0994
     16 C          12.1943   41.4048    6.8754 C.ar    1  UNL1       -0.0061
     17 C          12.8361   42.4144    6.1529 C.ar    1  UNL1       -0.0016
     18 C          14.1582   42.7577    6.4495 C.ar    1  UNL1        0.0144
     19 C          14.8513   42.0935    7.4674 C.ar    1  UNL1        0.0503
     20 C          14.2054   41.0758    8.1860 C.ar    1  UNL1        0.0144
     21 C          12.8835   40.7318    7.8905 C.ar    1  UNL1       -0.0016
     22 C          16.7878   43.7706    7.5483 C.2     1  UNL1        0.2266
     23 C          18.2175   43.9843    7.8917 C.3     1  UNL1        0.0949
     24 N          16.2061   42.4752    7.7421 N.am    1  UNL1       -0.2839
     25 O          16.1124   44.7308    7.0928 O.2     1  UNL1       -0.2748
     26 H          16.7978   41.7750    8.1010 H       1  UNL1        0.1549
@<TRIPOS>BOND
     1     8    12    1
     2     9    10   ar
     3    10    14    1
     4    11    12   ar
     5     1    11    1
     6     1     2    1
     7     1     7    1
     8     2     3    1
     9     3     4    1
    10     4     5    1
    11     5     6    1
    12     6     7    1
    13    15     7    1
    14    15    16    1
    15    17    18   ar
    16    19    24    1
    17    19    20   ar
    18    23    22    1
    19    21    16   ar
    20    12    13   ar
    21    24    22   am
    22     9    13   ar
    23    10    11   ar
    24    16    17   ar
    25    18    19   ar
    26    22    25    2
    27    20    21   ar
    28    24    26    1
@<TRIPOS>MOLECULE
MolPort-016-648-860 CSSS00160367009 MCULE-7229641129 PubChem-56832365
 26 28 0 0 0
SMALL
GASTEIGER

@<TRIPOS>ATOM
      1 C          13.5470   40.2926    8.4948 C.3     1  UNL1        0.0989
      2 C          14.5149   40.2365    9.6866 C.3     1  UNL1        0.0221
      3 C          14.7707   38.8079   10.1445 C.3     1  UNL1        0.0018
      4 C          13.4923   38.1206   10.5961 C.3     1  UNL1        0.0015
      5 C          12.6569   37.7638    9.3797 C.3     1  UNL1        0.0173
      6 C          11.6115   38.8397    9.0665 C.3     1  UNL1        0.0727
      7 N          12.1210   40.2080    8.8685 N.3     1  UNL1       -0.2653
      8 C          16.1327   41.9033    8.3674 C.3     1  UNL1        0.1534
      9 C          13.6773   43.0357    6.0414 C.ar    1  UNL1        0.1327
     10 C          12.9581   42.0169    6.6409 C.ar    1  UNL1        0.0929
     11 C          13.7929   41.4790    7.6043 C.ar    1  UNL1        0.0821
     12 N          14.9555   42.1509    7.5520 N.ar    1  UNL1       -0.2507
     13 N          14.8952   43.0893    6.6222 N.ar    1  UNL1       -0.1670
     14 CL         11.3194   41.5454    6.2272 Cl      1  UNL1       -0.0793
     15 C          11.7935   41.0129   10.0449 C.3     1  UNL1        0.0994
     16 C          10.5225   41.7611    9.8197 C.ar    1  UNL1       -0.0061
     17 C           9.4181   41.1025    9.2725 C.ar    1  UNL1       -0.0016
     18 C           8.2246   41.7965    9.0533 C.ar    1  UNL1        0.0144
     19 C           8.1255   43.1544    9.3756 C.ar    1  UNL1        0.0503
     20 C           9.2389   43.8137    9.9187 C.ar    1  UNL1        0.0144
     21 C          10.4325   43.1207   10.1384 C.ar    1  UNL1       -0.0016
     22 C           6.3102   44.1449    7.8614 C.2     1  UNL1        0.2266
     23 C           5.0058   44.8542    7.8057 C.3     1  UNL1        0.0949
     24 N           6.8838   43.8311    9.1367 N.am    1  UNL1       -0.2839
     25 O           6.8889   43.8322    6.7877 O.2     1  UNL1       -0.2748
     26 H           6.3726   44.1089    9.9309 H       1  UNL1        0.1549
@<TRIPOS>BOND
     1     8    12    1
     2     9    10   ar
     3    10    14    1
     4    11    12   ar
     5     1    11    1
     6     1     2    1
     7     1     7    1
     8     2     3    1
     9     3     4    1
    10     4     5    1
    11     5     6    1
    12     6     7    1
    13    15     7    1
    14    15    16    1
    15    17    18   ar
    16    19    24    1
    17    19    20   ar
    18    23    22    1
    19    21    16   ar
    20    12    13   ar
    21    24    22   am
    22     9    13   ar
    23    10    11   ar
    24    16    17   ar
    25    18    19   ar
    26    22    25    2
    27    20    21   ar
    28    24    26    1
@<TRIPOS>MOLECULE
MolPort-016-648-860 CSSS00160367009 MCULE-7229641129 PubChem-56832365
 26 28 0 0 0
SMALL
GASTEIGER

@<TRIPOS>ATOM
      1 C          14.4040   39.0317    9.7826 C.3     1  UNL1        0.0989
      2 C          14.7384   38.3527   11.1195 C.3     1  UNL1        0.0221
      3 C          14.2712   36.9048   11.1544 C.3     1  UNL1        0.0018
      4 C          12.7656   36.7913   10.9792 C.3     1  UNL1        0.0015
      5 C          12.4075   37.0522    9.5270 C.3     1  UNL1        0.0173
      6 C          12.0227   38.5158    9.2854 C.3     1  UNL1        0.0727
      7 N          13.0165   39.5274    9.6856 N.3     1  UNL1       -0.2653
      8 C          17.2298   39.3060   10.8944 C.3     1  UNL1        0.1534
      9 C          16.4431   41.8050    8.4742 C.ar    1  UNL1        0.1327
     10 C          15.2354   41.1302    8.4931 C.ar    1  UNL1        0.0929
     11 C          15.3815   40.1165    9.4235 C.ar    1  UNL1        0.0821
     12 N          16.6313   40.1931    9.9111 N.ar    1  UNL1       -0.2507
     13 N          17.2746   41.2046    9.3526 N.ar    1  UNL1       -0.1670
     14 CL         13.8319   41.5240    7.5165 Cl      1  UNL1       -0.0793
     15 C          12.5610   40.1838   10.9106 C.3     1  UNL1        0.0994
     16 C          11.3624   41.0263   10.6287 C.ar    1  UNL1       -0.0061
     17 C          11.4214   42.0042    9.6321 C.ar    1  UNL1       -0.0016
     18 C          10.3051   42.8017    9.3643 C.ar    1  UNL1        0.0144
     19 C           9.1221   42.6315   10.0917 C.ar    1  UNL1        0.0503
     20 C           9.0691   41.6528   11.0961 C.ar    1  UNL1        0.0144
     21 C          10.1846   40.8549   11.3646 C.ar    1  UNL1       -0.0016
     22 C           7.3006   43.5449    8.5371 C.2     1  UNL1        0.2266
     23 C           6.1497   44.4750    8.4028 C.3     1  UNL1        0.0949
     24 N           7.9983   43.4686    9.7866 N.am    1  UNL1       -0.2839
     25 O           7.6431   42.8406    7.5511 O.2     1  UNL1       -0.2748
     26 H           7.6724   44.0510   10.5103 H       1  UNL1        0.1549
@<TRIPOS>BOND
     1     8    12    1
     2     9    10   ar
     3    10    14    1
     4    11    12   ar
     5     1    11    1
     6     1     2    1
     7     1     7    1
     8     2     3    1
     9     3     4    1
    10     4     5    1
    11     5     6    1
    12     6     7    1
    13    15     7    1
    14    15    16    1
    15    17    18   ar
    16    19    24    1
    17    19    20   ar
    18    23    22    1
    19    21    16   ar
    20    12    13   ar
    21    24    22   am
    22     9    13   ar
    23    10    11   ar
    24    16    17   ar
    25    18    19   ar
    26    22    25    2
    27    20    21   ar
    28    24    26    1
@<TRIPOS>MOLECULE
MolPort-016-648-860 CSSS00160367009 MCULE-7229641129 PubChem-56832365
 26 28 0 0 0
SMALL
GASTEIGER

@<TRIPOS>ATOM
      1 C          14.3967   39.2202    9.6478 C.3     1  UNL1        0.0989
      2 C          14.8722   38.7352   11.0257 C.3     1  UNL1        0.0221
      3 C          14.5984   37.2525   11.2323 C.3     1  UNL1        0.0018
      4 C          13.1141   36.9344   11.1531 C.3     1  UNL1        0.0015
      5 C          12.6645   36.9917    9.7041 C.3     1  UNL1        0.0173
      6 C          12.0835   38.3617    9.3378 C.3     1  UNL1        0.0727
      7 N          12.9538   39.5261    9.5783 N.3     1  UNL1       -0.2653
      8 C          17.3174   39.7746   10.3254 C.3     1  UNL1        0.1534
      9 C          15.9648   42.1160    7.9994 C.ar    1  UNL1        0.1327
     10 C          14.8387   41.3399    8.2093 C.ar    1  UNL1        0.0929
     11 C          15.2094   40.3734    9.1275 C.ar    1  UNL1        0.0821
     12 N          16.5047   40.5739    9.4239 N.ar    1  UNL1       -0.2507
     13 N          16.9658   41.6188    8.7572 N.ar    1  UNL1       -0.1670
     14 CL         13.2785   41.5785    7.4428 Cl      1  UNL1       -0.0793
     15 C          12.4691   40.2481   10.7541 C.3     1  UNL1        0.0994
     16 C          11.0698   40.7153   10.5313 C.ar    1  UNL1       -0.0061
     17 C          10.2942   41.1249   11.6193 C.ar    1  UNL1       -0.0016
     18 C           8.9806   41.5595   11.4208 C.ar    1  UNL1        0.0144
     19 C           8.4297   41.5853   10.1350 C.ar    1  UNL1        0.0503
     20 C           9.2096   41.1669    9.0459 C.ar    1  UNL1        0.0144
     21 C          10.5232   40.7323    9.2432 C.ar    1  UNL1       -0.0016
     22 C           5.9529   41.6870   10.7863 C.2     1  UNL1        0.2266
     23 C           4.6187   42.2579   10.4672 C.3     1  UNL1        0.0949
     24 N           7.0788   42.0386    9.9723 N.am    1  UNL1       -0.2839
     25 O           6.0710   40.9043   11.7655 O.2     1  UNL1       -0.2748
     26 H           6.9072   42.6550    9.2241 H       1  UNL1        0.1549
@<TRIPOS>BOND
     1     8    12    1
     2     9    10   ar
     3    10    14    1
     4    11    12   ar
     5     1    11    1
     6     1     2    1
     7     1     7    1
     8     2     3    1
     9     3     4    1
    10     4     5    1
    11     5     6    1
    12     6     7    1
    13    15     7    1
    14    15    16    1
    15    17    18   ar
    16    19    24    1
    17    19    20   ar
    18    23    22    1
    19    21    16   ar
    20    12    13   ar
    21    24    22   am
    22     9    13   ar
    23    10    11   ar
    24    16    17   ar
    25    18    19   ar
    26    22    25    2
    27    20    21   ar
    28    24    26    1
@<TRIPOS>MOLECULE
MolPort-016-648-860 CSSS00160367009 MCULE-7229641129 PubChem-56832365
 26 28 0 0 0
SMALL
GASTEIGER

@<TRIPOS>ATOM
      1 C           9.2233   40.4388    8.1552 C.3     1  UNL1        0.0989
      2 C           8.0803   41.1735    7.4384 C.3     1  UNL1        0.0221
      3 C           7.2550   40.2331    6.5721 C.3     1  UNL1        0.0018
      4 C           8.0946   39.5804    5.4859 C.3     1  UNL1        0.0015
      5 C           8.9768   38.5120    6.1066 C.3     1  UNL1        0.0173
      6 C          10.3726   39.0465    6.4451 C.3     1  UNL1        0.0727
      7 N          10.4246   40.2291    7.3225 N.3     1  UNL1       -0.2653
      8 C           8.0602   43.0389    9.2430 C.3     1  UNL1        0.1534
      9 C          10.3716   41.5077   11.4869 C.ar    1  UNL1        0.1327
     10 C          10.4417   40.5989   10.4460 C.ar    1  UNL1        0.0929
     11 C           9.5909   41.0782    9.4656 C.ar    1  UNL1        0.0821
     12 N           9.0384   42.2118    9.9296 N.ar    1  UNL1       -0.2507
     13 N           9.5031   42.4812   11.1380 N.ar    1  UNL1       -0.1670
     14 CL         11.4293   39.1488   10.4232 Cl      1  UNL1       -0.0793
     15 C          10.7716   41.4020    6.5208 C.3     1  UNL1        0.0994
     16 C          12.1974   41.7781    6.7483 C.ar    1  UNL1       -0.0061
     17 C          12.9245   41.1555    7.7664 C.ar    1  UNL1       -0.0016
     18 C          14.2593   41.5049    7.9902 C.ar    1  UNL1        0.0144
     19 C          14.8777   42.4813    7.2016 C.ar    1  UNL1        0.0503
     20 C          14.1420   43.1090    6.1847 C.ar    1  UNL1        0.0144
     21 C          12.8075   42.7602    5.9599 C.ar    1  UNL1       -0.0016
     22 C          16.9645   43.9511    6.9688 C.2     1  UNL1        0.2266
     23 C          18.3902   44.1330    7.3456 C.3     1  UNL1        0.0949
     24 N          16.2489   42.8115    7.4618 N.am    1  UNL1       -0.2839
     25 O          16.4102   44.8006    6.2228 O.2     1  UNL1       -0.2748
     26 H          16.7504   42.1911    8.0387 H       1  UNL1        0.1549
@<TRIPOS>BOND
     1     8    12    1
     2     9    10   ar
     3    10    14    1
     4    11    12   ar
     5     1    11    1
     6     1     2    1
     7     1     7    1
     8     2     3    1
     9     3     4    1
    10     4     5    1
    11     5     6    1
    12     6     7    1
    13    15     7    1
    14    15    16    1
    15    17    18   ar
    16    19    24    1
    17    19    20   ar
    18    23    22    1
    19    21    16   ar
    20    12    13   ar
    21    24    22   am
    22     9    13   ar
    23    10    11   ar
    24    16    17   ar
    25    18    19   ar
    26    22    25    2
    27    20    21   ar
    28    24    26    1
@<TRIPOS>MOLECULE
MolPort-016-648-860 CSSS00160367009 MCULE-7229641129 PubChem-56832365
 26 28 0 0 0
SMALL
GASTEIGER

@<TRIPOS>ATOM
      1 C           8.8589   41.3693    7.8576 C.3     1  UNL1        0.0989
      2 C           8.6314   41.3943    6.3385 C.3     1  UNL1        0.0221
      3 C           8.3217   40.0102    5.7870 C.3     1  UNL1        0.0018
      4 C           9.4602   39.0340    6.0353 C.3     1  UNL1        0.0015
      5 C           9.4708   38.6365    7.5005 C.3     1  UNL1        0.0173
      6 C          10.4331   39.5011    8.3221 C.3     1  UNL1        0.0727
      7 N          10.2187   40.9576    8.2595 N.3     1  UNL1       -0.2653
      8 C           9.8667   42.3292   10.5704 C.3     1  UNL1        0.1534
      9 C           7.7155   44.6861    8.9769 C.ar    1  UNL1        0.1327
     10 C           7.6841   43.6821    8.0253 C.ar    1  UNL1        0.0929
     11 C           8.4781   42.6635    8.5217 C.ar    1  UNL1        0.0821
     12 N           8.9626   43.0705    9.7072 N.ar    1  UNL1       -0.2507
     13 N           8.5078   44.2792    9.9919 N.ar    1  UNL1       -0.1670
     14 CL          6.7971   43.7386    6.5124 Cl      1  UNL1       -0.0793
     15 C          11.2624   41.5571    7.4287 C.3     1  UNL1        0.0994
     16 C          12.6099   41.2386    7.9845 C.ar    1  UNL1       -0.0061
     17 C          13.7529   41.7605    7.3730 C.ar    1  UNL1       -0.0016
     18 C          15.0198   41.4635    7.8836 C.ar    1  UNL1        0.0144
     19 C          15.1557   40.6402    9.0067 C.ar    1  UNL1        0.0503
     20 C          14.0056   40.1127    9.6138 C.ar    1  UNL1        0.0144
     21 C          12.7385   40.4092    9.1042 C.ar    1  UNL1       -0.0016
     22 C          16.8146   39.4693   10.5707 C.2     1  UNL1        0.2266
     23 C          18.2418   39.3012   10.9480 C.3     1  UNL1        0.0949
     24 N          16.4723   40.3596    9.5011 N.am    1  UNL1       -0.2839
     25 O          15.9309   38.8272   11.1971 O.2     1  UNL1       -0.2748
     26 H          17.2182   40.8270    9.0601 H       1  UNL1        0.1549
@<TRIPOS>BOND
     1     8    12    1
     2     9    10   ar
     3    10    14    1
     4    11    12   ar
     5     1    11    1
     6     1     2    1
     7     1     7    1
     8     2     3    1
     9     3     4    1
    10     4     5    1
    11     5     6    1
    12     6     7    1
    13    15     7    1
    14    15    16    1
    15    17    18   ar
    16    19    24    1
    17    19    20   ar
    18    23    22    1
    19    21    16   ar
    20    12    13   ar
    21    24    22   am
    22     9    13   ar
    23    10    11   ar
    24    16    17   ar
    25    18    19   ar
    26    22    25    2
    27    20    21   ar
    28    24    26    1
