@<TRIPOS>MOLECULE
MolPort-029-901-571 CSSS00159880775 MCULE-6545676483 PubChem-72913081
 27 29 0 0 0
SMALL
GASTEIGER

@<TRIPOS>ATOM
      1 C          10.7314   41.8885    8.3052 C.2     1  UNL1        0.3044
      2 N          12.0386   41.4772    8.7202 N.am    1  UNL1       -0.2899
      3 N           9.8065   42.3582    9.2940 N.am    1  UNL1       -0.2682
      4 O          10.4067   41.8380    7.0880 O.2     1  UNL1       -0.2525
      5 H          12.2490   41.5258    9.6807 H       1  UNL1        0.1509
      6 H          10.1227   42.3620   10.2263 H       1  UNL1        0.1564
      7 C           8.4688   42.8231    9.0682 C.ar    1  UNL1        0.0546
      8 C           7.4416   41.8815    8.9436 C.ar    1  UNL1        0.0516
      9 C           6.1214   42.2876    8.7232 C.ar    1  UNL1        0.1396
     10 C           5.8283   43.6573    8.6293 C.ar    1  UNL1        0.0370
     11 C           6.8474   44.6045    8.7528 C.ar    1  UNL1        0.0044
     12 C           8.1630   44.1889    8.9713 C.ar    1  UNL1        0.0149
     13 O           5.1242   41.3133    8.6067 O.3     1  UNL1       -0.4791
     14 C           4.4207   40.7797    9.7235 C.3     1  UNL1        0.1659
     15 C           2.9460   41.1230    9.6064 C.3     1  UNL1        0.0435
     16 C           2.6359   42.0916   10.7275 C.3     1  UNL1        0.0038
     17 C           3.6890   41.8383   11.7783 C.3     1  UNL1        0.0038
     18 C           4.9208   41.4208   11.0082 C.3     1  UNL1        0.0435
     19 C          12.7029   41.2402    6.3733 C.3     1  UNL1        0.0217
     20 C          13.0833   40.9903    7.8208 C.3     1  UNL1        0.0791
     21 C          14.4293   41.6368    8.1310 C.3     1  UNL1        0.0670
     22 C          14.7357   42.7408    7.1742 C.ar    1  UNL1        0.0798
     23 C          16.3325   43.9791    5.9384 C.ar    1  UNL1        0.1191
     24 C          15.3133   44.7854    5.4282 C.ar    1  UNL1        0.1195
     25 C          13.7158   43.5519    6.6672 C.ar    1  UNL1        0.1136
     26 N          16.0218   42.9760    6.8015 N.ar    1  UNL1       -0.2449
     27 N          14.0275   44.5549    5.8043 N.ar    1  UNL1       -0.2395
@<TRIPOS>BOND
     1    20    19    1
     2    20    21    1
     3    20     2    1
     4    21    22    1
     5    23    26   ar
     6    24    27   ar
     7    25    22   ar
     8     1     3   am
     9     8     9   ar
    10     9    13    1
    11    14    13    1
    12    14    15    1
    13    15    16    1
    14    16    17    1
    15    17    18    1
    16    18    14    1
    17    10    11   ar
    18    12     7   ar
    19     2     1   am
    20     3     7    1
    21    22    26   ar
    22    23    24   ar
    23    25    27   ar
    24     1     4    2
    25     7     8   ar
    26     9    10   ar
    27    11    12   ar
    28     2     5    1
    29     3     6    1
@<TRIPOS>MOLECULE
MolPort-029-901-571 CSSS00159880775 MCULE-6545676483 PubChem-72913081
 27 29 0 0 0
SMALL
GASTEIGER

@<TRIPOS>ATOM
      1 C          11.0588   40.9371    8.9523 C.2     1  UNL1        0.3044
      2 N          12.0434   39.9611    9.3100 N.am    1  UNL1       -0.2899
      3 N           9.8690   40.5064    8.2796 N.am    1  UNL1       -0.2682
      4 O          11.2408   42.1535    9.2297 O.2     1  UNL1       -0.2525
      5 H          11.8655   39.0233    9.0687 H       1  UNL1        0.1509
      6 H           9.7965   39.5439    8.0855 H       1  UNL1        0.1564
      7 C           8.7728   41.3301    7.8594 C.ar    1  UNL1        0.0546
      8 C           7.7069   41.5331    8.7426 C.ar    1  UNL1        0.0516
      9 C           6.6163   42.3288    8.3770 C.ar    1  UNL1        0.1396
     10 C           6.5968   42.9309    7.1090 C.ar    1  UNL1        0.0370
     11 C           7.6566   42.7341    6.2208 C.ar    1  UNL1        0.0044
     12 C           8.7408   41.9365    6.5947 C.ar    1  UNL1        0.0149
     13 O           5.5723   42.5075    9.2912 O.3     1  UNL1       -0.4791
     14 C           4.6803   41.4646    9.6699 C.3     1  UNL1        0.1659
     15 C           3.2493   41.9673    9.5939 C.3     1  UNL1        0.0435
     16 C           2.7297   42.0135   11.0148 C.3     1  UNL1        0.0038
     17 C           3.5739   41.0256   11.7822 C.3     1  UNL1        0.0038
     18 C           4.9299   41.0657   11.1157 C.3     1  UNL1        0.0435
     19 C          13.3227   39.5781   11.3648 C.3     1  UNL1        0.0217
     20 C          13.2939   40.2562   10.0076 C.3     1  UNL1        0.0791
     21 C          14.5042   39.8334    9.1816 C.3     1  UNL1        0.0670
     22 C          15.1625   41.0095    8.5402 C.ar    1  UNL1        0.0798
     23 C          17.0719   42.3891    8.2919 C.ar    1  UNL1        0.1191
     24 C          16.3779   43.1864    7.3799 C.ar    1  UNL1        0.1195
     25 C          14.4661   41.8115    7.6308 C.ar    1  UNL1        0.1136
     26 N          16.4486   41.3195    8.8534 N.ar    1  UNL1       -0.2449
     27 N          15.0901   42.8809    7.0698 N.ar    1  UNL1       -0.2395
@<TRIPOS>BOND
     1    20    19    1
     2    20    21    1
     3    20     2    1
     4    21    22    1
     5    23    26   ar
     6    24    27   ar
     7    25    22   ar
     8     1     3   am
     9     8     9   ar
    10     9    13    1
    11    14    13    1
    12    14    15    1
    13    15    16    1
    14    16    17    1
    15    17    18    1
    16    18    14    1
    17    10    11   ar
    18    12     7   ar
    19     2     1   am
    20     3     7    1
    21    22    26   ar
    22    23    24   ar
    23    25    27   ar
    24     1     4    2
    25     7     8   ar
    26     9    10   ar
    27    11    12   ar
    28     2     5    1
    29     3     6    1
@<TRIPOS>MOLECULE
MolPort-029-901-571 CSSS00159880775 MCULE-6545676483 PubChem-72913081
 27 29 0 0 0
SMALL
GASTEIGER

@<TRIPOS>ATOM
      1 C          10.1047   41.9521    9.5280 C.2     1  UNL1        0.3044
      2 N           8.6933   41.8311    9.7359 N.am    1  UNL1       -0.2899
      3 N          10.9283   40.7881    9.6716 N.am    1  UNL1       -0.2682
      4 O          10.6079   43.0668    9.2215 O.2     1  UNL1       -0.2525
      5 H           8.3421   40.9445    9.9808 H       1  UNL1        0.1509
      6 H          10.4709   39.9530    9.9219 H       1  UNL1        0.1564
      7 C          12.3487   40.7120    9.4891 C.ar    1  UNL1        0.0546
      8 C          12.9261   41.3948    8.4131 C.ar    1  UNL1        0.0516
      9 C          14.3070   41.3501    8.1953 C.ar    1  UNL1        0.1396
     10 C          15.1193   40.6124    9.0710 C.ar    1  UNL1        0.0370
     11 C          14.5517   39.9279   10.1481 C.ar    1  UNL1        0.0044
     12 C          13.1712   39.9775   10.3565 C.ar    1  UNL1        0.0149
     13 O          14.8436   42.0490    7.1085 O.3     1  UNL1       -0.4791
     14 C          15.4512   43.3308    7.2288 C.3     1  UNL1        0.1659
     15 C          15.7403   43.8878    5.8458 C.3     1  UNL1        0.0435
     16 C          17.2465   43.9312    5.7019 C.3     1  UNL1        0.0038
     17 C          17.7820   43.9881    7.1116 C.3     1  UNL1        0.0038
     18 C          16.7885   43.2081    7.9417 C.3     1  UNL1        0.0435
     19 C           8.4580   44.2550    9.4621 C.3     1  UNL1        0.0217
     20 C           7.7357   42.9288    9.6109 C.3     1  UNL1        0.0791
     21 C           6.7893   42.7095    8.4354 C.3     1  UNL1        0.0670
     22 C           5.4071   42.3933    8.9017 C.ar    1  UNL1        0.0798
     23 C           3.8599   40.8220    9.7664 C.ar    1  UNL1        0.1191
     24 C           2.8585   41.7945    9.7436 C.ar    1  UNL1        0.1195
     25 C           4.4025   43.3656    8.8740 C.ar    1  UNL1        0.1136
     26 N           5.1114   41.1419    9.3433 N.ar    1  UNL1       -0.2449
     27 N           3.1512   43.0447    9.2971 N.ar    1  UNL1       -0.2395
@<TRIPOS>BOND
     1    20    19    1
     2    20    21    1
     3    20     2    1
     4    21    22    1
     5    23    26   ar
     6    24    27   ar
     7    25    22   ar
     8     1     3   am
     9     8     9   ar
    10     9    13    1
    11    14    13    1
    12    14    15    1
    13    15    16    1
    14    16    17    1
    15    17    18    1
    16    18    14    1
    17    10    11   ar
    18    12     7   ar
    19     2     1   am
    20     3     7    1
    21    22    26   ar
    22    23    24   ar
    23    25    27   ar
    24     1     4    2
    25     7     8   ar
    26     9    10   ar
    27    11    12   ar
    28     2     5    1
    29     3     6    1
@<TRIPOS>MOLECULE
MolPort-029-901-571 CSSS00159880775 MCULE-6545676483 PubChem-72913081
 27 29 0 0 0
SMALL
GASTEIGER

@<TRIPOS>ATOM
      1 C          11.4559   41.9170    8.8074 C.2     1  UNL1        0.3044
      2 N          12.2995   42.6250    7.8925 N.am    1  UNL1       -0.2899
      3 N          10.6584   42.6643    9.7344 N.am    1  UNL1       -0.2682
      4 O          11.4183   40.6568    8.7909 O.2     1  UNL1       -0.2525
      5 H          12.3046   43.6082    7.9435 H       1  UNL1        0.1509
      6 H          10.7440   43.6444    9.6990 H       1  UNL1        0.1564
      7 C           9.7487   42.1345   10.7083 C.ar    1  UNL1        0.0546
      8 C           8.3743   42.2941   10.5016 C.ar    1  UNL1        0.0516
      9 C           7.4492   41.7937   11.4237 C.ar    1  UNL1        0.1396
     10 C           7.9100   41.1220   12.5670 C.ar    1  UNL1        0.0370
     11 C           9.2804   40.9576   12.7814 C.ar    1  UNL1        0.0044
     12 C          10.1965   41.4621   11.8554 C.ar    1  UNL1        0.0149
     13 O           6.0836   41.9733   11.1776 O.3     1  UNL1       -0.4791
     14 C           5.4458   41.5529    9.9763 C.3     1  UNL1        0.1659
     15 C           4.9370   42.7672    9.2193 C.3     1  UNL1        0.0435
     16 C           3.4254   42.6972    9.2528 C.3     1  UNL1        0.0038
     17 C           3.0967   41.2396    9.4646 C.3     1  UNL1        0.0038
     18 C           4.2316   40.6982   10.3032 C.3     1  UNL1        0.0435
     19 C          13.5970   43.0067    5.8489 C.3     1  UNL1        0.0217
     20 C          13.1539   41.9936    6.8881 C.3     1  UNL1        0.0791
     21 C          14.3685   41.3306    7.5291 C.3     1  UNL1        0.0670
     22 C          15.4884   42.3017    7.7053 C.ar    1  UNL1        0.0798
     23 C          17.5989   42.8268    8.6435 C.ar    1  UNL1        0.1191
     24 C          17.5474   44.0910    8.0533 C.ar    1  UNL1        0.1195
     25 C          15.4347   43.5698    7.1187 C.ar    1  UNL1        0.1136
     26 N          16.5677   41.9607    8.4583 N.ar    1  UNL1       -0.2449
     27 N          16.4663   44.4353    7.3046 N.ar    1  UNL1       -0.2395
@<TRIPOS>BOND
     1    20    19    1
     2    20    21    1
     3    20     2    1
     4    21    22    1
     5    23    26   ar
     6    24    27   ar
     7    25    22   ar
     8     1     3   am
     9     8     9   ar
    10     9    13    1
    11    14    13    1
    12    14    15    1
    13    15    16    1
    14    16    17    1
    15    17    18    1
    16    18    14    1
    17    10    11   ar
    18    12     7   ar
    19     2     1   am
    20     3     7    1
    21    22    26   ar
    22    23    24   ar
    23    25    27   ar
    24     1     4    2
    25     7     8   ar
    26     9    10   ar
    27    11    12   ar
    28     2     5    1
    29     3     6    1
@<TRIPOS>MOLECULE
MolPort-029-901-571 CSSS00159880775 MCULE-6545676483 PubChem-72913081
 27 29 0 0 0
SMALL
GASTEIGER

@<TRIPOS>ATOM
      1 C          11.4641   40.7652    8.0623 C.2     1  UNL1        0.3044
      2 N          12.8882   40.6175    8.0577 N.am    1  UNL1       -0.2899
      3 N          10.7353   40.4914    6.8591 N.am    1  UNL1       -0.2682
      4 O          10.8671   41.1283    9.1118 O.2     1  UNL1       -0.2525
      5 H          13.3156   40.3390    7.2156 H       1  UNL1        0.1509
      6 H          11.2656   40.2218    6.0747 H       1  UNL1        0.1564
      7 C           9.3149   40.5688    6.6777 C.ar    1  UNL1        0.0546
      8 C           8.7039   41.8274    6.6825 C.ar    1  UNL1        0.0516
      9 C           7.3217   41.9525    6.5088 C.ar    1  UNL1        0.1396
     10 C           6.5430   40.7989    6.3253 C.ar    1  UNL1        0.0370
     11 C           7.1443   39.5383    6.3187 C.ar    1  UNL1        0.0044
     12 C           8.5254   39.4236    6.4944 C.ar    1  UNL1        0.0149
     13 O           6.7513   43.2300    6.5181 O.3     1  UNL1       -0.4791
     14 C           6.3160   43.8811    7.7069 C.3     1  UNL1        0.1659
     15 C           6.1305   42.8540    8.8101 C.3     1  UNL1        0.0435
     16 C           4.6464   42.7939    9.1015 C.3     1  UNL1        0.0038
     17 C           4.0952   44.1238    8.6489 C.3     1  UNL1        0.0038
     18 C           4.9603   44.5304    7.4781 C.3     1  UNL1        0.0435
     19 C          13.3369   39.9739   10.3793 C.3     1  UNL1        0.0217
     20 C          13.7537   40.8503    9.2128 C.3     1  UNL1        0.0791
     21 C          15.2190   40.6063    8.8675 C.3     1  UNL1        0.0670
     22 C          15.8668   41.8435    8.3406 C.ar    1  UNL1        0.0798
     23 C          17.6729   43.3752    8.3907 C.ar    1  UNL1        0.1191
     24 C          17.0591   44.1326    7.3914 C.ar    1  UNL1        0.1195
     25 C          15.2498   42.6052    7.3435 C.ar    1  UNL1        0.1136
     26 N          17.0627   42.2486    8.8447 N.ar    1  UNL1       -0.2449
     27 N          15.8607   43.7318    6.8903 N.ar    1  UNL1       -0.2395
@<TRIPOS>BOND
     1    20    19    1
     2    20    21    1
     3    20     2    1
     4    21    22    1
     5    23    26   ar
     6    24    27   ar
     7    25    22   ar
     8     1     3   am
     9     8     9   ar
    10     9    13    1
    11    14    13    1
    12    14    15    1
    13    15    16    1
    14    16    17    1
    15    17    18    1
    16    18    14    1
    17    10    11   ar
    18    12     7   ar
    19     2     1   am
    20     3     7    1
    21    22    26   ar
    22    23    24   ar
    23    25    27   ar
    24     1     4    2
    25     7     8   ar
    26     9    10   ar
    27    11    12   ar
    28     2     5    1
    29     3     6    1
@<TRIPOS>MOLECULE
MolPort-029-901-571 CSSS00159880775 MCULE-6545676483 PubChem-72913081
 27 29 0 0 0
SMALL
GASTEIGER

@<TRIPOS>ATOM
      1 C          11.0546   40.4230    9.2781 C.2     1  UNL1        0.3044
      2 N          12.0594   40.8460   10.2062 N.am    1  UNL1       -0.2899
      3 N           9.7892   41.0958    9.2728 N.am    1  UNL1       -0.2682
      4 O          11.2865   39.4751    8.4797 O.2     1  UNL1       -0.2525
      5 H          11.8350   41.5849   10.8168 H       1  UNL1        0.1509
      6 H           9.6728   41.8202    9.9292 H       1  UNL1        0.1564
      7 C           8.6747   40.8247    8.4120 C.ar    1  UNL1        0.0546
      8 C           8.8991   40.1243    7.2218 C.ar    1  UNL1        0.0516
      9 C           7.8430   39.8363    6.3510 C.ar    1  UNL1        0.1396
     10 C           6.5442   40.2548    6.6809 C.ar    1  UNL1        0.0370
     11 C           6.3108   40.9542    7.8671 C.ar    1  UNL1        0.0044
     12 C           7.3723   41.2382    8.7296 C.ar    1  UNL1        0.0149
     13 O           8.1108   39.1319    5.1723 O.3     1  UNL1       -0.4791
     14 C           9.1544   39.4870    4.2714 C.3     1  UNL1        0.1659
     15 C           9.0615   38.6283    3.0222 C.3     1  UNL1        0.0435
     16 C          10.2800   37.7304    3.0215 C.3     1  UNL1        0.0038
     17 C          11.3066   38.4479    3.8634 C.3     1  UNL1        0.0038
     18 C          10.5073   39.1995    4.9029 C.3     1  UNL1        0.0435
     19 C          13.3638   39.0108   11.1738 C.3     1  UNL1        0.0217
     20 C          13.3946   40.2599   10.3127 C.3     1  UNL1        0.0791
     21 C          13.9717   39.9383    8.9382 C.3     1  UNL1        0.0670
     22 C          14.9452   40.9812    8.4995 C.ar    1  UNL1        0.0798
     23 C          17.1099   41.9328    8.6388 C.ar    1  UNL1        0.1191
     24 C          16.7401   42.9108    7.7137 C.ar    1  UNL1        0.1195
     25 C          14.5737   41.9641    7.5769 C.ar    1  UNL1        0.1136
     26 N          16.2040   40.9908    9.0129 N.ar    1  UNL1       -0.2449
     27 N          15.4801   42.9057    7.2036 N.ar    1  UNL1       -0.2395
@<TRIPOS>BOND
     1    20    19    1
     2    20    21    1
     3    20     2    1
     4    21    22    1
     5    23    26   ar
     6    24    27   ar
     7    25    22   ar
     8     1     3   am
     9     8     9   ar
    10     9    13    1
    11    14    13    1
    12    14    15    1
    13    15    16    1
    14    16    17    1
    15    17    18    1
    16    18    14    1
    17    10    11   ar
    18    12     7   ar
    19     2     1   am
    20     3     7    1
    21    22    26   ar
    22    23    24   ar
    23    25    27   ar
    24     1     4    2
    25     7     8   ar
    26     9    10   ar
    27    11    12   ar
    28     2     5    1
    29     3     6    1
@<TRIPOS>MOLECULE
MolPort-029-901-571 CSSS00159880775 MCULE-6545676483 PubChem-72913081
 27 29 0 0 0
SMALL
GASTEIGER

@<TRIPOS>ATOM
      1 C          10.1563   41.0354    9.3187 C.2     1  UNL1        0.3044
      2 N           8.7833   41.0431    9.7247 N.am    1  UNL1       -0.2899
      3 N          11.1397   40.4974   10.2116 N.am    1  UNL1       -0.2682
      4 O          10.4876   41.4938    8.1918 O.2     1  UNL1       -0.2525
      5 H           8.5685   40.6823   10.6151 H       1  UNL1        0.1509
      6 H          10.8126   40.1655   11.0788 H       1  UNL1        0.1564
      7 C          12.5501   40.3916    9.9746 C.ar    1  UNL1        0.0546
      8 C          13.1038   41.0827    8.8914 C.ar    1  UNL1        0.0516
      9 C          14.4742   41.0101    8.6213 C.ar    1  UNL1        0.1396
     10 C          15.3001   40.2355    9.4512 C.ar    1  UNL1        0.0370
     11 C          14.7562   39.5425   10.5351 C.ar    1  UNL1        0.0044
     12 C          13.3860   39.6202   10.7958 C.ar    1  UNL1        0.0149
     13 O          14.9872   41.7184    7.5292 O.3     1  UNL1       -0.4791
     14 C          15.4875   43.0476    7.6272 C.3     1  UNL1        0.1659
     15 C          15.3064   43.7580    6.2972 C.3     1  UNL1        0.0435
     16 C          16.6935   43.9943    5.7393 C.3     1  UNL1        0.0038
     17 C          17.6129   43.9873    6.9360 C.3     1  UNL1        0.0038
     18 C          16.9807   43.0220    7.9123 C.3     1  UNL1        0.0435
     19 C           7.3747   40.5968    7.7697 C.3     1  UNL1        0.0217
     20 C           7.6774   41.5479    8.9126 C.3     1  UNL1        0.0791
     21 C           6.4267   41.7735    9.7556 C.3     1  UNL1        0.0670
     22 C           5.5337   42.7991    9.1402 C.ar    1  UNL1        0.0798
     23 C           5.2657   44.6789    7.7242 C.ar    1  UNL1        0.1191
     24 C           3.9009   44.7058    8.0173 C.ar    1  UNL1        0.1195
     25 C           4.1677   42.8296    9.4376 C.ar    1  UNL1        0.1136
     26 N           6.0524   43.7277    8.2935 N.ar    1  UNL1       -0.2449
     27 N           3.3819   43.7813    8.8681 N.ar    1  UNL1       -0.2395
@<TRIPOS>BOND
     1    20    19    1
     2    20    21    1
     3    20     2    1
     4    21    22    1
     5    23    26   ar
     6    24    27   ar
     7    25    22   ar
     8     1     3   am
     9     8     9   ar
    10     9    13    1
    11    14    13    1
    12    14    15    1
    13    15    16    1
    14    16    17    1
    15    17    18    1
    16    18    14    1
    17    10    11   ar
    18    12     7   ar
    19     2     1   am
    20     3     7    1
    21    22    26   ar
    22    23    24   ar
    23    25    27   ar
    24     1     4    2
    25     7     8   ar
    26     9    10   ar
    27    11    12   ar
    28     2     5    1
    29     3     6    1
@<TRIPOS>MOLECULE
MolPort-029-901-571 CSSS00159880775 MCULE-6545676483 PubChem-72913081
 27 29 0 0 0
SMALL
GASTEIGER

@<TRIPOS>ATOM
      1 C          12.4966   39.8200   10.5237 C.2     1  UNL1        0.3044
      2 N          13.5347   39.4380    9.6147 N.am    1  UNL1       -0.2899
      3 N          11.3703   40.5502   10.0216 N.am    1  UNL1       -0.2682
      4 O          12.5771   39.5137   11.7441 O.2     1  UNL1       -0.2525
      5 H          13.4363   39.7031    8.6716 H       1  UNL1        0.1509
      6 H          11.3768   40.7640    9.0606 H       1  UNL1        0.1564
      7 C          10.2347   41.0021   10.7719 C.ar    1  UNL1        0.0546
      8 C           9.0849   41.3967   10.0793 C.ar    1  UNL1        0.0516
      9 C           7.9528   41.8441   10.7682 C.ar    1  UNL1        0.1396
     10 C           7.9745   41.8934   12.1710 C.ar    1  UNL1        0.0370
     11 C           9.1179   41.5011   12.8708 C.ar    1  UNL1        0.0044
     12 C          10.2440   41.0570   12.1737 C.ar    1  UNL1        0.0149
     13 O           6.8233   42.2275   10.0370 O.3     1  UNL1       -0.4791
     14 C           5.6776   41.3973    9.8793 C.3     1  UNL1        0.1659
     15 C           4.6183   42.1390    9.0829 C.3     1  UNL1        0.0435
     16 C           3.4669   42.3997   10.0302 C.3     1  UNL1        0.0038
     17 C           3.5862   41.3469   11.1048 C.3     1  UNL1        0.0038
     18 C           5.0691   41.0864   11.2376 C.3     1  UNL1        0.0435
     19 C          15.1244   37.7254    8.8760 C.3     1  UNL1        0.0217
     20 C          14.7304   38.6827    9.9855 C.3     1  UNL1        0.0791
     21 C          15.8935   39.6114   10.3178 C.3     1  UNL1        0.0670
     22 C          16.0397   40.6877    9.2940 C.ar    1  UNL1        0.0798
     23 C          17.4133   42.2594    8.1744 C.ar    1  UNL1        0.1191
     24 C          16.3154   42.6860    7.4249 C.ar    1  UNL1        0.1195
     25 C          14.9391   41.1189    8.5469 C.ar    1  UNL1        0.1136
     26 N          17.2511   41.2713    9.0937 N.ar    1  UNL1       -0.2449
     27 N          15.1022   42.1072    7.6280 N.ar    1  UNL1       -0.2395
@<TRIPOS>BOND
     1    20    19    1
     2    20    21    1
     3    20     2    1
     4    21    22    1
     5    23    26   ar
     6    24    27   ar
     7    25    22   ar
     8     1     3   am
     9     8     9   ar
    10     9    13    1
    11    14    13    1
    12    14    15    1
    13    15    16    1
    14    16    17    1
    15    17    18    1
    16    18    14    1
    17    10    11   ar
    18    12     7   ar
    19     2     1   am
    20     3     7    1
    21    22    26   ar
    22    23    24   ar
    23    25    27   ar
    24     1     4    2
    25     7     8   ar
    26     9    10   ar
    27    11    12   ar
    28     2     5    1
    29     3     6    1
@<TRIPOS>MOLECULE
MolPort-029-901-571 CSSS00159880775 MCULE-6545676483 PubChem-72913081
 27 29 0 0 0
SMALL
GASTEIGER

@<TRIPOS>ATOM
      1 C          10.4921   41.7047    9.2575 C.2     1  UNL1        0.3044
      2 N           9.3092   41.0290    9.6979 N.am    1  UNL1       -0.2899
      3 N          11.3884   41.0247    8.3698 N.am    1  UNL1       -0.2682
      4 O          10.7340   42.8794    9.6462 O.2     1  UNL1       -0.2525
      5 H           9.1617   40.1102    9.3765 H       1  UNL1        0.1509
      6 H          11.1429   40.1062    8.1143 H       1  UNL1        0.1564
      7 C          12.6054   41.5417    7.8144 C.ar    1  UNL1        0.0546
      8 C          13.8214   41.1752    8.4013 C.ar    1  UNL1        0.0516
      9 C          15.0338   41.6540    7.8941 C.ar    1  UNL1        0.1396
     10 C          15.0253   42.5098    6.7813 C.ar    1  UNL1        0.0370
     11 C          13.8162   42.8806    6.1886 C.ar    1  UNL1        0.0044
     12 C          12.6104   42.3983    6.7034 C.ar    1  UNL1        0.0149
     13 O          16.2272   41.2611    8.5097 O.3     1  UNL1       -0.4791
     14 C          17.4387   42.0014    8.4059 C.3     1  UNL1        0.1659
     15 C          17.3499   43.2455    9.2723 C.3     1  UNL1        0.0435
     16 C          17.3325   44.4299    8.3300 C.3     1  UNL1        0.0038
     17 C          17.9902   43.9427    7.0622 C.3     1  UNL1        0.0038
     18 C          17.6382   42.4754    6.9751 C.3     1  UNL1        0.0435
     19 C           8.6551   43.0398   10.9365 C.3     1  UNL1        0.0217
     20 C           8.3044   41.6046   10.5904 C.3     1  UNL1        0.0791
     21 C           6.9105   41.5364    9.9755 C.3     1  UNL1        0.0670
     22 C           6.8940   42.1154    8.5999 C.ar    1  UNL1        0.0798
     23 C           6.4998   43.9657    7.1745 C.ar    1  UNL1        0.1191
     24 C           6.8402   43.1862    6.0675 C.ar    1  UNL1        0.1195
     25 C           7.2298   41.3335    7.4903 C.ar    1  UNL1        0.1136
     26 N           6.5322   43.4129    8.4160 N.ar    1  UNL1       -0.2449
     27 N           7.1969   41.8871    6.2493 N.ar    1  UNL1       -0.2395
@<TRIPOS>BOND
     1    20    19    1
     2    20    21    1
     3    20     2    1
     4    21    22    1
     5    23    26   ar
     6    24    27   ar
     7    25    22   ar
     8     1     3   am
     9     8     9   ar
    10     9    13    1
    11    14    13    1
    12    14    15    1
    13    15    16    1
    14    16    17    1
    15    17    18    1
    16    18    14    1
    17    10    11   ar
    18    12     7   ar
    19     2     1   am
    20     3     7    1
    21    22    26   ar
    22    23    24   ar
    23    25    27   ar
    24     1     4    2
    25     7     8   ar
    26     9    10   ar
    27    11    12   ar
    28     2     5    1
    29     3     6    1
@<TRIPOS>MOLECULE
MolPort-029-901-571 CSSS00159880775 MCULE-6545676483 PubChem-72913081
 27 29 0 0 0
SMALL
GASTEIGER

@<TRIPOS>ATOM
      1 C          12.0606   41.6955    6.1714 C.2     1  UNL1        0.3044
      2 N          10.8738   42.0023    5.4316 N.am    1  UNL1       -0.2899
      3 N          13.0775   42.6975    6.2961 N.am    1  UNL1       -0.2682
      4 O          12.2013   40.5613    6.7038 O.2     1  UNL1       -0.2525
      5 H          10.8070   42.8968    5.0260 H       1  UNL1        0.1509
      6 H          12.9065   43.5570    5.8473 H       1  UNL1        0.1564
      7 C          14.3181   42.5800    7.0059 C.ar    1  UNL1        0.0546
      8 C          14.5147   41.4723    7.8377 C.ar    1  UNL1        0.0516
      9 C          15.7085   41.3148    8.5493 C.ar    1  UNL1        0.1396
     10 C          16.7192   42.2807    8.4221 C.ar    1  UNL1        0.0370
     11 C          16.5320   43.3895    7.5938 C.ar    1  UNL1        0.0044
     12 C          15.3356   43.5387    6.8882 C.ar    1  UNL1        0.0149
     13 O          15.8648   40.1913    9.3684 O.3     1  UNL1       -0.4791
     14 C          14.8090   39.2791    9.6508 C.3     1  UNL1        0.1659
     15 C          13.9787   39.8054   10.8084 C.3     1  UNL1        0.0435
     16 C          14.2032   38.8596   11.9686 C.3     1  UNL1        0.0038
     17 C          14.6272   37.5530   11.3437 C.3     1  UNL1        0.0038
     18 C          15.3810   37.9414   10.0926 C.3     1  UNL1        0.0435
     19 C          10.1957   39.8607    4.4522 C.3     1  UNL1        0.0217
     20 C           9.7539   41.0832    5.2349 C.3     1  UNL1        0.0791
     21 C           9.1395   40.6629    6.5660 C.3     1  UNL1        0.0670
     22 C           8.2146   41.7094    7.0926 C.ar    1  UNL1        0.0798
     23 C           6.8199   43.5817    6.6926 C.ar    1  UNL1        0.1191
     24 C           6.5256   43.6544    8.0554 C.ar    1  UNL1        0.1195
     25 C           7.9238   41.7858    8.4582 C.ar    1  UNL1        0.1136
     26 N           7.6592   42.6123    6.2414 N.ar    1  UNL1       -0.2449
     27 N           7.0845   42.7556    8.9086 N.ar    1  UNL1       -0.2395
@<TRIPOS>BOND
     1    20    19    1
     2    20    21    1
     3    20     2    1
     4    21    22    1
     5    23    26   ar
     6    24    27   ar
     7    25    22   ar
     8     1     3   am
     9     8     9   ar
    10     9    13    1
    11    14    13    1
    12    14    15    1
    13    15    16    1
    14    16    17    1
    15    17    18    1
    16    18    14    1
    17    10    11   ar
    18    12     7   ar
    19     2     1   am
    20     3     7    1
    21    22    26   ar
    22    23    24   ar
    23    25    27   ar
    24     1     4    2
    25     7     8   ar
    26     9    10   ar
    27    11    12   ar
    28     2     5    1
    29     3     6    1
