@<TRIPOS>MOLECULE
MolPort-007-714-557 ChemDiv-E002-1895 MCULE-1375136554 PubChem-22510858 ZINC000006780260
 27 29 0 0 0
SMALL
GASTEIGER

@<TRIPOS>ATOM
      1 C          12.5478   40.9201    9.6060 C.ar    1  UNL1        0.1905
      2 C          10.4671   41.9894   10.1306 C.ar    1  UNL1        0.1904
      3 N          12.3216   42.0392    8.8789 N.ar    1  UNL1       -0.1239
      4 N          11.1688   42.6371    9.1746 N.ar    1  UNL1       -0.1240
      5 S          11.2632   40.6067   10.6609 S.2     1  UNL1       -0.0151
      6 C           7.9293   42.0019   10.0979 C.2     1  UNL1        0.3096
      7 N           9.1937   42.4151   10.6247 N.am    1  UNL1       -0.2468
      8 N           6.7306   42.5089   10.6921 N.am    1  UNL1       -0.2683
      9 O           7.8688   41.2338    9.0994 O.2     1  UNL1       -0.2521
     10 H           9.1870   43.0402   11.3853 H       1  UNL1        0.1584
     11 H           6.8201   43.2474   11.3369 H       1  UNL1        0.1564
     12 C           5.4091   42.0237   10.4204 C.ar    1  UNL1        0.0476
     13 C           4.9819   40.8647   11.0784 C.ar    1  UNL1        0.0144
     14 C           3.7088   40.3408   10.8412 C.ar    1  UNL1        0.0013
     15 C           2.8560   40.9653    9.9295 C.ar    1  UNL1       -0.0002
     16 C           3.2814   42.1057    9.2447 C.ar    1  UNL1       -0.0030
     17 C           4.5540   42.6380    9.4768 C.ar    1  UNL1       -0.0083
     18 C           4.9890   43.8004    8.6510 C.3     1  UNL1        0.0323
     19 N          13.7005   40.0778    9.4139 N.pl3   1  UNL1       -0.2659
     20 C          13.7220   38.6883    9.8003 C.ar    1  UNL1        0.0531
     21 C          13.8963   38.3150   11.1430 C.ar    1  UNL1        0.0149
     22 C          13.9443   36.9661   11.5059 C.ar    1  UNL1        0.0013
     23 C          13.8269   35.9753   10.5284 C.ar    1  UNL1        0.0001
     24 C          13.6651   36.3332    9.1879 C.ar    1  UNL1        0.0013
     25 C          13.6169   37.6822    8.8255 C.ar    1  UNL1        0.0149
     26 C          14.9023   40.6714    8.8347 C.3     1  UNL1        0.0975
     27 C          16.1213   40.2786    9.6485 C.3     1  UNL1        0.0236
@<TRIPOS>BOND
     1     1    19    1
     2     1     5   ar
     3    26    19    1
     4    26    27    1
     5    21    22   ar
     6    23    24   ar
     7    25    20   ar
     8     2     7    1
     9     2     5   ar
    10     6     8   am
    11    13    14   ar
    12    15    16   ar
    13    17    12   ar
    14    18    17    1
    15    19    20    1
    16     3     4   ar
    17     7     6   am
    18     8    12    1
    19     1     3   ar
    20    20    21   ar
    21    22    23   ar
    22    24    25   ar
    23     2     4   ar
    24     6     9    2
    25    12    13   ar
    26    14    15   ar
    27    16    17   ar
    28     7    10    1
    29     8    11    1
@<TRIPOS>MOLECULE
MolPort-007-714-557 ChemDiv-E002-1895 MCULE-1375136554 PubChem-22510858 ZINC000006780260
 27 29 0 0 0
SMALL
GASTEIGER

@<TRIPOS>ATOM
      1 C          12.4506   40.7914    9.6532 C.ar    1  UNL1        0.1905
      2 C          10.3575   41.7979   10.2479 C.ar    1  UNL1        0.1904
      3 N          12.1635   41.8992    8.9302 N.ar    1  UNL1       -0.1239
      4 N          11.0039   42.4623    9.2647 N.ar    1  UNL1       -0.1240
      5 S          11.2150   40.4435   10.7548 S.2     1  UNL1       -0.0151
      6 C           7.8233   41.9186   10.1763 C.2     1  UNL1        0.3096
      7 N           9.0898   42.1863   10.7857 N.am    1  UNL1       -0.2468
      8 N           6.6311   42.3672   10.8277 N.am    1  UNL1       -0.2683
      9 O           7.7572   41.3315    9.0621 O.2     1  UNL1       -0.2521
     10 H           9.0890   42.6751   11.6403 H       1  UNL1        0.1584
     11 H           6.7332   42.9832   11.5888 H       1  UNL1        0.1564
     12 C           5.2990   41.9883   10.4568 C.ar    1  UNL1        0.0476
     13 C           4.7735   40.8077   10.9941 C.ar    1  UNL1        0.0144
     14 C           3.4857   40.3844   10.6564 C.ar    1  UNL1        0.0013
     15 C           2.7168   41.1330    9.7638 C.ar    1  UNL1       -0.0002
     16 C           3.2407   42.2975    9.1982 C.ar    1  UNL1       -0.0030
     17 C           4.5287   42.7296    9.5314 C.ar    1  UNL1       -0.0083
     18 C           5.0706   43.9269    8.8279 C.3     1  UNL1        0.0323
     19 N          13.6215   39.9845    9.4232 N.pl3   1  UNL1       -0.2659
     20 C          14.9305   40.5538    9.2162 C.ar    1  UNL1        0.0531
     21 C          15.1268   41.5973    8.2969 C.ar    1  UNL1        0.0149
     22 C          16.4030   42.1248    8.0813 C.ar    1  UNL1        0.0013
     23 C          17.4988   41.6085    8.7768 C.ar    1  UNL1        0.0001
     24 C          17.3190   40.5626    9.6852 C.ar    1  UNL1        0.0013
     25 C          16.0425   40.0356    9.9006 C.ar    1  UNL1        0.0149
     26 C          13.4618   38.5341    9.3654 C.3     1  UNL1        0.0975
     27 C          13.5686   37.9426   10.7588 C.3     1  UNL1        0.0236
@<TRIPOS>BOND
     1     1    19    1
     2     1     5   ar
     3    26    19    1
     4    26    27    1
     5    21    22   ar
     6    23    24   ar
     7    25    20   ar
     8     2     7    1
     9     2     5   ar
    10     6     8   am
    11    13    14   ar
    12    15    16   ar
    13    17    12   ar
    14    18    17    1
    15    19    20    1
    16     3     4   ar
    17     7     6   am
    18     8    12    1
    19     1     3   ar
    20    20    21   ar
    21    22    23   ar
    22    24    25   ar
    23     2     4   ar
    24     6     9    2
    25    12    13   ar
    26    14    15   ar
    27    16    17   ar
    28     7    10    1
    29     8    11    1
@<TRIPOS>MOLECULE
MolPort-007-714-557 ChemDiv-E002-1895 MCULE-1375136554 PubChem-22510858 ZINC000006780260
 27 29 0 0 0
SMALL
GASTEIGER

@<TRIPOS>ATOM
      1 C          11.9426   39.8397    6.1224 C.ar    1  UNL1        0.1905
      2 C          11.6884   41.3233    7.9884 C.ar    1  UNL1        0.1904
      3 N          12.5776   41.0236    5.9566 N.ar    1  UNL1       -0.1239
      4 N          12.4419   41.8456    6.9958 N.ar    1  UNL1       -0.1240
      5 S          11.1372   39.7810    7.6086 S.2     1  UNL1       -0.0151
      6 C          10.6427   41.4376   10.2982 C.2     1  UNL1        0.3096
      7 N          11.3808   42.0016    9.2100 N.am    1  UNL1       -0.2468
      8 N          10.4080   42.2332   11.4639 N.am    1  UNL1       -0.2683
      9 O          10.1704   40.2709   10.2185 O.2     1  UNL1       -0.2521
     10 H          11.7014   42.9271    9.3093 H       1  UNL1        0.1584
     11 H          10.6234   43.1924   11.4105 H       1  UNL1        0.1564
     12 C           9.8831   41.7407   12.7038 C.ar    1  UNL1        0.0476
     13 C          10.7887   41.3269   13.6875 C.ar    1  UNL1        0.0144
     14 C          10.3319   40.8264   14.9090 C.ar    1  UNL1        0.0013
     15 C           8.9613   40.7210   15.1513 C.ar    1  UNL1       -0.0002
     16 C           8.0475   41.1031   14.1667 C.ar    1  UNL1       -0.0030
     17 C           8.4957   41.6066   12.9410 C.ar    1  UNL1       -0.0083
     18 C           7.4792   41.9113   11.8942 C.3     1  UNL1        0.0323
     19 N          11.9013   38.8209    5.1047 N.pl3   1  UNL1       -0.2659
     20 C          10.7622   38.6296    4.2410 C.ar    1  UNL1        0.0531
     21 C          10.4603   37.3633    3.7139 C.ar    1  UNL1        0.0149
     22 C           9.3712   37.1914    2.8551 C.ar    1  UNL1        0.0013
     23 C           8.5766   38.2861    2.5069 C.ar    1  UNL1        0.0001
     24 C           8.8731   39.5532    3.0148 C.ar    1  UNL1        0.0013
     25 C           9.9623   39.7246    3.8738 C.ar    1  UNL1        0.0149
     26 C          13.0499   37.9290    4.9717 C.3     1  UNL1        0.0975
     27 C          13.0837   37.3278    3.5788 C.3     1  UNL1        0.0236
@<TRIPOS>BOND
     1     1    19    1
     2     1     5   ar
     3    26    19    1
     4    26    27    1
     5    21    22   ar
     6    23    24   ar
     7    25    20   ar
     8     2     7    1
     9     2     5   ar
    10     6     8   am
    11    13    14   ar
    12    15    16   ar
    13    17    12   ar
    14    18    17    1
    15    19    20    1
    16     3     4   ar
    17     7     6   am
    18     8    12    1
    19     1     3   ar
    20    20    21   ar
    21    22    23   ar
    22    24    25   ar
    23     2     4   ar
    24     6     9    2
    25    12    13   ar
    26    14    15   ar
    27    16    17   ar
    28     7    10    1
    29     8    11    1
@<TRIPOS>MOLECULE
MolPort-007-714-557 ChemDiv-E002-1895 MCULE-1375136554 PubChem-22510858 ZINC000006780260
 27 29 0 0 0
SMALL
GASTEIGER

@<TRIPOS>ATOM
      1 C           8.3038   41.9917    8.4941 C.ar    1  UNL1        0.1905
      2 C          10.3509   41.5970    7.3103 C.ar    1  UNL1        0.1904
      3 N           8.1151   41.5358    7.2336 N.ar    1  UNL1       -0.1239
      4 N           9.2522   41.3103    6.5779 N.ar    1  UNL1       -0.1240
      5 S           9.9503   42.1639    8.8416 S.2     1  UNL1       -0.0151
      6 C          12.7952   42.2764    7.2351 C.2     1  UNL1        0.3096
      7 N          11.6943   41.4524    6.8399 N.am    1  UNL1       -0.2468
      8 N          14.0893   42.0175    6.6829 N.am    1  UNL1       -0.2683
      9 O          12.6232   43.2424    8.0276 O.2     1  UNL1       -0.2521
     10 H          11.8751   40.7308    6.1950 H       1  UNL1        0.1584
     11 H          14.1441   41.3854    5.9300 H       1  UNL1        0.1564
     12 C          15.3126   42.6080    7.1418 C.ar    1  UNL1        0.0476
     13 C          15.8161   43.7122    6.4448 C.ar    1  UNL1        0.0144
     14 C          17.0108   44.3184    6.8406 C.ar    1  UNL1        0.0013
     15 C          17.7215   43.8137    7.9308 C.ar    1  UNL1       -0.0002
     16 C          17.2448   42.6944    8.6166 C.ar    1  UNL1       -0.0030
     17 C          16.0488   42.0817    8.2281 C.ar    1  UNL1       -0.0083
     18 C          15.6364   40.8368    8.9367 C.3     1  UNL1        0.0323
     19 N           7.2189   42.3612    9.3668 N.pl3   1  UNL1       -0.2659
     20 C           6.0728   43.1083    8.9100 C.ar    1  UNL1        0.0531
     21 C           6.2265   44.2303    8.0794 C.ar    1  UNL1        0.0149
     22 C           5.1131   44.9658    7.6639 C.ar    1  UNL1        0.0013
     23 C           3.8336   44.5921    8.0815 C.ar    1  UNL1        0.0001
     24 C           3.6680   43.4851    8.9174 C.ar    1  UNL1        0.0013
     25 C           4.7818   42.7498    9.3325 C.ar    1  UNL1        0.0149
     26 C           7.3073   41.9894   10.7762 C.3     1  UNL1        0.0975
     27 C           6.0959   41.1669   11.1747 C.3     1  UNL1        0.0236
@<TRIPOS>BOND
     1     1    19    1
     2     1     5   ar
     3    26    19    1
     4    26    27    1
     5    21    22   ar
     6    23    24   ar
     7    25    20   ar
     8     2     7    1
     9     2     5   ar
    10     6     8   am
    11    13    14   ar
    12    15    16   ar
    13    17    12   ar
    14    18    17    1
    15    19    20    1
    16     3     4   ar
    17     7     6   am
    18     8    12    1
    19     1     3   ar
    20    20    21   ar
    21    22    23   ar
    22    24    25   ar
    23     2     4   ar
    24     6     9    2
    25    12    13   ar
    26    14    15   ar
    27    16    17   ar
    28     7    10    1
    29     8    11    1
@<TRIPOS>MOLECULE
MolPort-007-714-557 ChemDiv-E002-1895 MCULE-1375136554 PubChem-22510858 ZINC000006780260
 27 29 0 0 0
SMALL
GASTEIGER

@<TRIPOS>ATOM
      1 C           5.8738   41.8958   10.0125 C.ar    1  UNL1        0.1905
      2 C           3.7052   42.1981   10.9890 C.ar    1  UNL1        0.1904
      3 N           5.6922   41.1807   11.1474 N.ar    1  UNL1       -0.1239
      4 N           4.4853   41.3434   11.6866 N.ar    1  UNL1       -0.1240
      5 S           4.5008   42.8111    9.6406 S.2     1  UNL1       -0.0151
      6 C           1.7242   42.1727   12.5754 C.2     1  UNL1        0.3096
      7 N           2.3691   42.5542   11.3566 N.am    1  UNL1       -0.2468
      8 N           0.3800   42.6012   12.8130 N.am    1  UNL1       -0.2683
      9 O           2.3147   41.4366   13.4122 O.2     1  UNL1       -0.2521
     10 H           1.8542   43.1036   10.7224 H       1  UNL1        0.1584
     11 H          -0.1076   43.0068   12.0601 H       1  UNL1        0.1564
     12 C          -0.3113   42.4850   14.0637 C.ar    1  UNL1        0.0476
     13 C          -1.1706   41.3954   14.2456 C.ar    1  UNL1        0.0144
     14 C          -1.8792   41.2403   15.4394 C.ar    1  UNL1        0.0013
     15 C          -1.7453   42.1851   16.4581 C.ar    1  UNL1       -0.0002
     16 C          -0.9135   43.2924   16.2777 C.ar    1  UNL1       -0.0030
     17 C          -0.1992   43.4552   15.0861 C.ar    1  UNL1       -0.0083
     18 C           0.6001   44.7015   14.9124 C.3     1  UNL1        0.0323
     19 N           7.1208   41.9226    9.2917 N.pl3   1  UNL1       -0.2659
     20 C           7.4097   41.0216    8.2031 C.ar    1  UNL1        0.0531
     21 C           6.3961   40.5977    7.3283 C.ar    1  UNL1        0.0149
     22 C           6.6784   39.7025    6.2928 C.ar    1  UNL1        0.0013
     23 C           7.9765   39.2145    6.1259 C.ar    1  UNL1        0.0001
     24 C           8.9914   39.6190    6.9964 C.ar    1  UNL1        0.0013
     25 C           8.7086   40.5145    8.0316 C.ar    1  UNL1        0.0149
     26 C           8.1404   42.8812    9.7085 C.3     1  UNL1        0.0975
     27 C           7.9522   44.1948    8.9724 C.3     1  UNL1        0.0236
@<TRIPOS>BOND
     1     1    19    1
     2     1     5   ar
     3    26    19    1
     4    26    27    1
     5    21    22   ar
     6    23    24   ar
     7    25    20   ar
     8     2     7    1
     9     2     5   ar
    10     6     8   am
    11    13    14   ar
    12    15    16   ar
    13    17    12   ar
    14    18    17    1
    15    19    20    1
    16     3     4   ar
    17     7     6   am
    18     8    12    1
    19     1     3   ar
    20    20    21   ar
    21    22    23   ar
    22    24    25   ar
    23     2     4   ar
    24     6     9    2
    25    12    13   ar
    26    14    15   ar
    27    16    17   ar
    28     7    10    1
    29     8    11    1
@<TRIPOS>MOLECULE
MolPort-007-714-557 ChemDiv-E002-1895 MCULE-1375136554 PubChem-22510858 ZINC000006780260
 27 29 0 0 0
SMALL
GASTEIGER

@<TRIPOS>ATOM
      1 C          12.4379   41.6254    8.2649 C.ar    1  UNL1        0.1905
      2 C          10.6541   41.0694    9.7671 C.ar    1  UNL1        0.1904
      3 N          12.8276   40.8318    9.2899 N.ar    1  UNL1       -0.1239
      4 N          11.8355   40.5174   10.1211 N.ar    1  UNL1       -0.1240
      5 S          10.7924   42.0015    8.3747 S.2     1  UNL1       -0.0151
      6 C           8.1668   41.4408   10.1096 C.2     1  UNL1        0.3096
      7 N           9.4335   40.8978   10.4937 N.am    1  UNL1       -0.2468
      8 N           7.0249   41.1887   10.9339 N.am    1  UNL1       -0.2683
      9 O           8.0624   42.1645    9.0820 O.2     1  UNL1       -0.2521
     10 H           9.4680   40.3654   11.3211 H       1  UNL1        0.1584
     11 H           7.1828   40.7867   11.8186 H       1  UNL1        0.1564
     12 C           5.6683   41.4766   10.5701 C.ar    1  UNL1        0.0476
     13 C           4.8080   41.9662   11.5595 C.ar    1  UNL1        0.0144
     14 C           3.4729   42.2510   11.2634 C.ar    1  UNL1        0.0013
     15 C           2.9821   42.0331    9.9750 C.ar    1  UNL1       -0.0002
     16 C           3.8228   41.5173    8.9863 C.ar    1  UNL1       -0.0030
     17 C           5.1614   41.2303    9.2734 C.ar    1  UNL1       -0.0083
     18 C           5.9868   40.5957    8.2066 C.3     1  UNL1        0.0323
     19 N          13.3524   42.1405    7.2783 N.pl3   1  UNL1       -0.2659
     20 C          14.7221   42.4725    7.5852 C.ar    1  UNL1        0.0531
     21 C          15.3047   43.6546    7.0996 C.ar    1  UNL1        0.0149
     22 C          16.6409   43.9556    7.3778 C.ar    1  UNL1        0.0013
     23 C          17.4120   43.0731    8.1379 C.ar    1  UNL1        0.0001
     24 C          16.8480   41.8882    8.6168 C.ar    1  UNL1        0.0013
     25 C          15.5116   41.5878    8.3385 C.ar    1  UNL1        0.0149
     26 C          12.8550   42.3641    5.9237 C.3     1  UNL1        0.0975
     27 C          11.8431   41.2943    5.5574 C.3     1  UNL1        0.0236
@<TRIPOS>BOND
     1     1    19    1
     2     1     5   ar
     3    26    19    1
     4    26    27    1
     5    21    22   ar
     6    23    24   ar
     7    25    20   ar
     8     2     7    1
     9     2     5   ar
    10     6     8   am
    11    13    14   ar
    12    15    16   ar
    13    17    12   ar
    14    18    17    1
    15    19    20    1
    16     3     4   ar
    17     7     6   am
    18     8    12    1
    19     1     3   ar
    20    20    21   ar
    21    22    23   ar
    22    24    25   ar
    23     2     4   ar
    24     6     9    2
    25    12    13   ar
    26    14    15   ar
    27    16    17   ar
    28     7    10    1
    29     8    11    1
@<TRIPOS>MOLECULE
MolPort-007-714-557 ChemDiv-E002-1895 MCULE-1375136554 PubChem-22510858 ZINC000006780260
 27 29 0 0 0
SMALL
GASTEIGER

@<TRIPOS>ATOM
      1 C           8.1357   42.4716    7.9947 C.ar    1  UNL1        0.1905
      2 C          10.2801   41.7695    7.1845 C.ar    1  UNL1        0.1904
      3 N           8.1385   42.1718    6.6747 N.ar    1  UNL1       -0.1239
      4 N           9.3281   41.7755    6.2256 N.ar    1  UNL1       -0.1240
      5 S           9.6743   42.2748    8.6693 S.2     1  UNL1       -0.0151
      6 C          12.7760   42.2284    7.2279 C.2     1  UNL1        0.3096
      7 N          11.6433   41.3945    6.9656 N.am    1  UNL1       -0.2468
      8 N          14.0872   41.7223    6.9608 N.am    1  UNL1       -0.2683
      9 O          12.6227   43.4068    7.6506 O.2     1  UNL1       -0.2521
     10 H          11.8152   40.4939    6.6070 H       1  UNL1        0.1584
     11 H          14.1552   40.8798    6.4561 H       1  UNL1        0.1564
     12 C          15.3099   42.3481    7.3720 C.ar    1  UNL1        0.0476
     13 C          15.7775   43.4379    6.6288 C.ar    1  UNL1        0.0144
     14 C          16.9699   44.0769    6.9770 C.ar    1  UNL1        0.0013
     15 C          17.7144   43.6196    8.0657 C.ar    1  UNL1       -0.0002
     16 C          17.2736   42.5148    8.7975 C.ar    1  UNL1       -0.0030
     17 C          16.0802   41.8696    8.4568 C.ar    1  UNL1       -0.0083
     18 C          15.7064   40.6411    9.2139 C.3     1  UNL1        0.0323
     19 N           6.9764   42.9793    8.6827 N.pl3   1  UNL1       -0.2659
     20 C           6.0897   42.1327    9.4426 C.ar    1  UNL1        0.0531
     21 C           4.8173   41.7958    8.9527 C.ar    1  UNL1        0.0149
     22 C           3.9528   40.9980    9.7074 C.ar    1  UNL1        0.0013
     23 C           4.3482   40.5351   10.9646 C.ar    1  UNL1        0.0001
     24 C           5.6065   40.8728   11.4685 C.ar    1  UNL1        0.0013
     25 C           6.4708   41.6705   10.7133 C.ar    1  UNL1        0.0149
     26 C           6.6758   44.4041    8.5734 C.3     1  UNL1        0.0975
     27 C           7.7804   45.2204    9.2187 C.3     1  UNL1        0.0236
@<TRIPOS>BOND
     1     1    19    1
     2     1     5   ar
     3    26    19    1
     4    26    27    1
     5    21    22   ar
     6    23    24   ar
     7    25    20   ar
     8     2     7    1
     9     2     5   ar
    10     6     8   am
    11    13    14   ar
    12    15    16   ar
    13    17    12   ar
    14    18    17    1
    15    19    20    1
    16     3     4   ar
    17     7     6   am
    18     8    12    1
    19     1     3   ar
    20    20    21   ar
    21    22    23   ar
    22    24    25   ar
    23     2     4   ar
    24     6     9    2
    25    12    13   ar
    26    14    15   ar
    27    16    17   ar
    28     7    10    1
    29     8    11    1
@<TRIPOS>MOLECULE
MolPort-007-714-557 ChemDiv-E002-1895 MCULE-1375136554 PubChem-22510858 ZINC000006780260
 27 29 0 0 0
SMALL
GASTEIGER

@<TRIPOS>ATOM
      1 C          12.9094   41.1521    8.4683 C.ar    1  UNL1        0.1905
      2 C          10.5177   41.0637    8.3275 C.ar    1  UNL1        0.1904
      3 N          12.3218   42.3688    8.5517 N.ar    1  UNL1       -0.1239
      4 N          10.9928   42.3194    8.4800 N.ar    1  UNL1       -0.1240
      5 S          11.7576   39.9298    8.2668 S.2     1  UNL1       -0.0151
      6 C           8.0887   41.2789    9.0316 C.2     1  UNL1        0.3096
      7 N           9.1299   40.7343    8.2152 N.am    1  UNL1       -0.2468
      8 N           6.7397   40.8581    8.8081 N.am    1  UNL1       -0.2683
      9 O           8.3573   42.0876    9.9614 O.2     1  UNL1       -0.2521
     10 H           8.8717   40.0833    7.5234 H       1  UNL1        0.1584
     11 H           6.5964   40.0901    8.2092 H       1  UNL1        0.1564
     12 C           5.5805   41.4694    9.3896 C.ar    1  UNL1        0.0476
     13 C           4.6997   42.1540    8.5446 C.ar    1  UNL1        0.0144
     14 C           3.5617   42.7793    9.0598 C.ar    1  UNL1        0.0013
     15 C           3.3030   42.7376   10.4308 C.ar    1  UNL1       -0.0002
     16 C           4.1896   42.0827   11.2884 C.ar    1  UNL1       -0.0030
     17 C           5.3310   41.4528   10.7813 C.ar    1  UNL1       -0.0083
     18 C           6.2885   40.8498   11.7515 C.3     1  UNL1        0.0323
     19 N          14.3381   40.9683    8.4616 N.pl3   1  UNL1       -0.2659
     20 C          15.2419   41.9172    7.8591 C.ar    1  UNL1        0.0531
     21 C          16.5465   42.0846    8.3515 C.ar    1  UNL1        0.0149
     22 C          17.4072   43.0262    7.7803 C.ar    1  UNL1        0.0013
     23 C          16.9695   43.8169    6.7153 C.ar    1  UNL1        0.0001
     24 C          15.6703   43.6686    6.2238 C.ar    1  UNL1        0.0013
     25 C          14.8101   42.7267    6.7952 C.ar    1  UNL1        0.0149
     26 C          14.8821   39.7532    9.0615 C.3     1  UNL1        0.0975
     27 C          14.4971   39.6788   10.5275 C.3     1  UNL1        0.0236
@<TRIPOS>BOND
     1     1    19    1
     2     1     5   ar
     3    26    19    1
     4    26    27    1
     5    21    22   ar
     6    23    24   ar
     7    25    20   ar
     8     2     7    1
     9     2     5   ar
    10     6     8   am
    11    13    14   ar
    12    15    16   ar
    13    17    12   ar
    14    18    17    1
    15    19    20    1
    16     3     4   ar
    17     7     6   am
    18     8    12    1
    19     1     3   ar
    20    20    21   ar
    21    22    23   ar
    22    24    25   ar
    23     2     4   ar
    24     6     9    2
    25    12    13   ar
    26    14    15   ar
    27    16    17   ar
    28     7    10    1
    29     8    11    1
@<TRIPOS>MOLECULE
MolPort-007-714-557 ChemDiv-E002-1895 MCULE-1375136554 PubChem-22510858 ZINC000006780260
 27 29 0 0 0
SMALL
GASTEIGER

@<TRIPOS>ATOM
      1 C           5.7956   41.7588    9.7026 C.ar    1  UNL1        0.1905
      2 C           3.6875   42.1170   10.7867 C.ar    1  UNL1        0.1904
      3 N           5.5489   40.8777   10.7001 N.ar    1  UNL1       -0.1239
      4 N           4.3750   41.0723   11.2983 N.ar    1  UNL1       -0.1240
      5 S           4.5300   42.8694    9.5413 S.2     1  UNL1       -0.0151
      6 C           1.8185   42.1670   12.5031 C.2     1  UNL1        0.3096
      7 N           2.4049   42.5453   11.2541 N.am    1  UNL1       -0.2468
      8 N           0.5239   42.6722   12.8434 N.am    1  UNL1       -0.2683
      9 O           2.4136   41.3687   13.2772 O.2     1  UNL1       -0.2521
     10 H           1.8862   43.1463   10.6718 H       1  UNL1        0.1584
     11 H           0.0152   43.1317   12.1368 H       1  UNL1        0.1564
     12 C          -0.0893   42.5604   14.1346 C.ar    1  UNL1        0.0476
     13 C           0.5934   43.0841   15.2384 C.ar    1  UNL1        0.0144
     14 C           0.0483   42.9909   16.5212 C.ar    1  UNL1        0.0013
     15 C          -1.1808   42.3576   16.7127 C.ar    1  UNL1       -0.0002
     16 C          -1.8581   41.8051   15.6235 C.ar    1  UNL1       -0.0030
     17 C          -1.3204   41.8947   14.3352 C.ar    1  UNL1       -0.0083
     18 C          -2.0403   41.2074   13.2256 C.3     1  UNL1        0.0323
     19 N           7.0284   41.7774    8.9575 N.pl3   1  UNL1       -0.2659
     20 C           8.3104   41.5243    9.5680 C.ar    1  UNL1        0.0531
     21 C           9.2387   40.6595    8.9657 C.ar    1  UNL1        0.0149
     22 C          10.4677   40.3974    9.5775 C.ar    1  UNL1        0.0013
     23 C          10.7786   40.9909   10.8031 C.ar    1  UNL1        0.0001
     24 C           9.8591   41.8437   11.4185 C.ar    1  UNL1        0.0013
     25 C           8.6303   42.1057   10.8062 C.ar    1  UNL1        0.0149
     26 C           6.9718   42.0992    7.5343 C.3     1  UNL1        0.0975
     27 C           6.6372   40.8553    6.7320 C.3     1  UNL1        0.0236
@<TRIPOS>BOND
     1     1    19    1
     2     1     5   ar
     3    26    19    1
     4    26    27    1
     5    21    22   ar
     6    23    24   ar
     7    25    20   ar
     8     2     7    1
     9     2     5   ar
    10     6     8   am
    11    13    14   ar
    12    15    16   ar
    13    17    12   ar
    14    18    17    1
    15    19    20    1
    16     3     4   ar
    17     7     6   am
    18     8    12    1
    19     1     3   ar
    20    20    21   ar
    21    22    23   ar
    22    24    25   ar
    23     2     4   ar
    24     6     9    2
    25    12    13   ar
    26    14    15   ar
    27    16    17   ar
    28     7    10    1
    29     8    11    1
@<TRIPOS>MOLECULE
MolPort-007-714-557 ChemDiv-E002-1895 MCULE-1375136554 PubChem-22510858 ZINC000006780260
 27 29 0 0 0
SMALL
GASTEIGER

@<TRIPOS>ATOM
      1 C           8.0482   41.6642    9.2670 C.ar    1  UNL1        0.1905
      2 C          10.0072   41.5762    7.8877 C.ar    1  UNL1        0.1904
      3 N           7.8903   42.2787    8.0713 N.ar    1  UNL1       -0.1239
      4 N           8.9762   42.2244    7.3021 N.ar    1  UNL1       -0.1240
      5 S           9.6092   41.0330    9.4283 S.2     1  UNL1       -0.0151
      6 C          12.4590   42.1541    7.5775 C.2     1  UNL1        0.3096
      7 N          11.2890   41.3856    7.2815 N.am    1  UNL1       -0.2468
      8 N          13.6787   41.8531    6.8928 N.am    1  UNL1       -0.2683
      9 O          12.4099   43.1092    8.3996 O.2     1  UNL1       -0.2521
     10 H          11.3724   40.6710    6.6094 H       1  UNL1        0.1584
     11 H          13.6299   41.2356    6.1276 H       1  UNL1        0.1564
     12 C          14.9664   42.3819    7.2358 C.ar    1  UNL1        0.0476
     13 C          15.7123   41.7212    8.2185 C.ar    1  UNL1        0.0144
     14 C          16.9675   42.2006    8.6007 C.ar    1  UNL1        0.0013
     15 C          17.4815   43.3571    8.0120 C.ar    1  UNL1       -0.0002
     16 C          16.7345   44.0421    7.0512 C.ar    1  UNL1       -0.0030
     17 C          15.4772   43.5687    6.6615 C.ar    1  UNL1       -0.0083
     18 C          14.6857   44.3895    5.7013 C.3     1  UNL1        0.0323
     19 N           7.0281   41.6501   10.2841 N.pl3   1  UNL1       -0.2659
     20 C           5.6218   41.7400    9.9769 C.ar    1  UNL1        0.0531
     21 C           5.0852   42.8931    9.3810 C.ar    1  UNL1        0.0149
     22 C           3.7167   42.9838    9.1121 C.ar    1  UNL1        0.0013
     23 C           2.8679   41.9253    9.4441 C.ar    1  UNL1        0.0001
     24 C           3.3871   40.7776   10.0481 C.ar    1  UNL1        0.0013
     25 C           4.7558   40.6873   10.3166 C.ar    1  UNL1        0.0149
     26 C           7.4454   41.5754   11.6815 C.3     1  UNL1        0.0975
     27 C           8.9555   41.6876   11.7807 C.3     1  UNL1        0.0236
@<TRIPOS>BOND
     1     1    19    1
     2     1     5   ar
     3    26    19    1
     4    26    27    1
     5    21    22   ar
     6    23    24   ar
     7    25    20   ar
     8     2     7    1
     9     2     5   ar
    10     6     8   am
    11    13    14   ar
    12    15    16   ar
    13    17    12   ar
    14    18    17    1
    15    19    20    1
    16     3     4   ar
    17     7     6   am
    18     8    12    1
    19     1     3   ar
    20    20    21   ar
    21    22    23   ar
    22    24    25   ar
    23     2     4   ar
    24     6     9    2
    25    12    13   ar
    26    14    15   ar
    27    16    17   ar
    28     7    10    1
    29     8    11    1
