@<TRIPOS>MOLECULE
Molport-046-420-638 CSSS14880538712 MCULE-1498866221
 33 35 0 0 0
SMALL
GASTEIGER

@<TRIPOS>ATOM
      1 C           9.5069   40.2791    6.9934 C.3     1  UNL1        0.2880
      2 C           9.3848   41.4133    5.9887 C.3     1  UNL1        0.0650
      3 C          11.5353   39.9871    8.4545 C.ar    1  UNL1        0.1542
      4 C          12.8904   39.6535    8.5366 C.ar    1  UNL1        0.0529
      5 C          13.5334   39.5961    9.7782 C.ar    1  UNL1        0.0534
      6 C          12.8043   39.8804   10.9434 C.ar    1  UNL1        0.0161
      7 C          11.4502   40.2177   10.8649 C.ar    1  UNL1        0.0190
      8 C          10.8175   40.2700    9.6207 C.ar    1  UNL1        0.0850
      9 C           8.7810   40.6689    8.2662 C.2     1  UNL1        0.2732
     10 O          10.9087   40.0399    7.2049 O.3     1  UNL1       -0.4618
     11 O           7.5703   41.0179    8.2224 O.2     1  UNL1       -0.2704
     12 N           9.4436   40.6265    9.5299 N.am    1  UNL1       -0.2783
     13 H           8.9434   40.8468   10.3487 H       1  UNL1        0.1551
     14 C          15.6664   38.8052   10.9606 C.2     1  UNL1        0.2262
     15 O          15.1144   38.6591   12.0835 O.2     1  UNL1       -0.2748
     16 N          14.9243   39.2513    9.8181 N.am    1  UNL1       -0.2838
     17 H          15.4221   39.3290    8.9723 H       1  UNL1        0.1549
     18 C          17.1270   38.5409   10.8217 C.3     1  UNL1        0.0892
     19 C          17.8239   39.6874   10.0999 C.3     1  UNL1        0.0569
     20 C          16.8347   40.7673    9.6896 C.3     1  UNL1        0.2060
     21 O          17.4421   41.6584    8.7626 O.3     1  UNL1       -0.4732
     22 C          16.7011   42.5128    7.9406 C.ar    1  UNL1        0.1658
     23 C          15.3739   42.2184    7.5856 C.ar    1  UNL1        0.0392
     24 C          14.6549   43.0867    6.7595 C.ar    1  UNL1        0.0033
     25 C          15.2558   44.2541    6.2823 C.ar    1  UNL1        0.0025
     26 C          16.5756   44.5532    6.6311 C.ar    1  UNL1        0.0328
     27 C          17.2973   43.6862    7.4575 C.ar    1  UNL1        0.1738
     28 F          18.5772   43.9877    7.7873 F       1  UNL1       -0.2010
     29 C           8.8715   39.0428    6.4175 C.2     1  UNL1        0.3623
     30 O           8.4190   38.1474    7.1839 O.2     1  UNL1       -0.2457
     31 O           8.7703   38.8991    5.0290 O.3     1  UNL1       -0.4458
     32 C           9.8671   38.4900    4.2215 C.3     1  UNL1        0.2087
     33 C           9.4380   38.3880    2.7698 C.3     1  UNL1        0.0513
@<TRIPOS>BOND
     1     1     2    1
     2     1    29    1
     3     1    10    1
     4     1     9    1
     5    29    31    1
     6    32    31    1
     7    32    33    1
     8     3    10    1
     9     4     5   ar
    10     5    16    1
    11     6     7   ar
    12     8    12    1
    13     8     3   ar
    14    18    14    1
    15    18    19    1
    16    19    20    1
    17    20    21    1
    18    22    21    1
    19    23    24   ar
    20    25    26   ar
    21    27    28    1
    22    27    22   ar
    23    12     9   am
    24    16    14   am
    25    29    30    2
    26     3     4   ar
    27     5     6   ar
    28     7     8   ar
    29     9    11    2
    30    14    15    2
    31    22    23   ar
    32    24    25   ar
    33    26    27   ar
    34    12    13    1
    35    16    17    1
@<TRIPOS>MOLECULE
Molport-046-420-638 CSSS14880538712 MCULE-1498866221
 33 35 0 0 0
SMALL
GASTEIGER

@<TRIPOS>ATOM
      1 C          15.4312   38.9589   10.0584 C.3     1  UNL1        0.2880
      2 C          16.6210   39.7260    9.5044 C.3     1  UNL1        0.0650
      3 C          13.0706   39.8092    9.8607 C.ar    1  UNL1        0.1542
      4 C          12.1210   40.7541   10.2602 C.ar    1  UNL1        0.0529
      5 C          10.7989   40.6662    9.8101 C.ar    1  UNL1        0.0534
      6 C          10.4346   39.6196    8.9487 C.ar    1  UNL1        0.0161
      7 C          11.3820   38.6750    8.5444 C.ar    1  UNL1        0.0190
      8 C          12.6985   38.7708    9.0013 C.ar    1  UNL1        0.0850
      9 C          15.0180   37.9000    9.0549 C.2     1  UNL1        0.2732
     10 O          14.3877   39.9127   10.3203 O.3     1  UNL1       -0.4618
     11 O          15.8605   37.0593    8.6394 O.2     1  UNL1       -0.2704
     12 N          13.6728   37.8226    8.5834 N.am    1  UNL1       -0.2783
     13 H          13.4164   37.1040    7.9613 H       1  UNL1        0.1551
     14 C          10.0148   43.0796   10.1761 C.2     1  UNL1        0.2262
     15 O          11.0525   43.6009    9.6883 O.2     1  UNL1       -0.2748
     16 N           9.8568   41.6563   10.2427 N.am    1  UNL1       -0.2838
     17 H           9.0128   41.3241   10.6255 H       1  UNL1        0.1549
     18 C           8.9421   43.9572   10.7254 C.3     1  UNL1        0.0892
     19 C           8.3052   44.7964    9.6249 C.3     1  UNL1        0.0569
     20 C           7.1952   44.0338    8.9182 C.3     1  UNL1        0.2060
     21 O           7.1685   42.6843    9.3666 O.3     1  UNL1       -0.4732
     22 C           5.9924   42.0475    9.7739 C.ar    1  UNL1        0.1658
     23 C           4.8453   42.0396    8.9626 C.ar    1  UNL1        0.0392
     24 C           3.6802   41.3990    9.3935 C.ar    1  UNL1        0.0033
     25 C           3.6524   40.7627   10.6369 C.ar    1  UNL1        0.0025
     26 C           4.7896   40.7668   11.4492 C.ar    1  UNL1        0.0328
     27 C           5.9566   41.4069   11.0205 C.ar    1  UNL1        0.1738
     28 F           7.0523   41.4043   11.8187 F       1  UNL1       -0.2010
     29 C          15.8330   38.2933   11.3465 C.2     1  UNL1        0.3623
     30 O          15.4220   38.7485   12.4499 O.2     1  UNL1       -0.2457
     31 O          16.6505   37.1578   11.3133 O.3     1  UNL1       -0.4458
     32 C          18.0232   37.2153   10.9458 C.3     1  UNL1        0.2087
     33 C          18.5998   38.5759   11.2900 C.3     1  UNL1        0.0513
@<TRIPOS>BOND
     1     1     2    1
     2     1    29    1
     3     1    10    1
     4     1     9    1
     5    29    31    1
     6    32    31    1
     7    32    33    1
     8     3    10    1
     9     4     5   ar
    10     5    16    1
    11     6     7   ar
    12     8    12    1
    13     8     3   ar
    14    18    14    1
    15    18    19    1
    16    19    20    1
    17    20    21    1
    18    22    21    1
    19    23    24   ar
    20    25    26   ar
    21    27    28    1
    22    27    22   ar
    23    12     9   am
    24    16    14   am
    25    29    30    2
    26     3     4   ar
    27     5     6   ar
    28     7     8   ar
    29     9    11    2
    30    14    15    2
    31    22    23   ar
    32    24    25   ar
    33    26    27   ar
    34    12    13    1
    35    16    17    1
@<TRIPOS>MOLECULE
Molport-046-420-638 CSSS14880538712 MCULE-1498866221
 33 35 0 0 0
SMALL
GASTEIGER

@<TRIPOS>ATOM
      1 C          15.6985   38.9366   10.2774 C.3     1  UNL1        0.2880
      2 C          16.7387   39.9460    9.8191 C.3     1  UNL1        0.0650
      3 C          13.2281   39.4051   10.1685 C.ar    1  UNL1        0.1542
      4 C          12.1430   40.1303   10.6694 C.ar    1  UNL1        0.0529
      5 C          10.8465   39.8783   10.2069 C.ar    1  UNL1        0.0534
      6 C          10.6452   38.8902    9.2305 C.ar    1  UNL1        0.0161
      7 C          11.7282   38.1656    8.7249 C.ar    1  UNL1        0.0190
      8 C          13.0179   38.4237    9.1950 C.ar    1  UNL1        0.0850
      9 C          15.4490   37.9445    9.1582 C.2     1  UNL1        0.2732
     10 O          14.5173   39.6706   10.6421 O.3     1  UNL1       -0.4618
     11 O          16.4113   37.3057    8.6530 O.2     1  UNL1       -0.2704
     12 N          14.1278   37.7014    8.6757 N.am    1  UNL1       -0.2783
     13 H          13.9829   37.0255    7.9747 H       1  UNL1        0.1551
     14 C           9.5875   42.0655   10.6590 C.2     1  UNL1        0.2262
     15 O          10.4190   42.7912   10.0519 O.2     1  UNL1       -0.2748
     16 N           9.7618   40.6452   10.7457 N.am    1  UNL1       -0.2838
     17 H           9.0634   40.1440   11.2256 H       1  UNL1        0.1549
     18 C           8.4151   42.6969   11.3293 C.3     1  UNL1        0.0892
     19 C           7.5586   41.6514   12.0324 C.3     1  UNL1        0.0569
     20 C           6.2319   41.4491   11.3169 C.3     1  UNL1        0.2060
     21 O           6.4025   41.6199    9.9154 O.3     1  UNL1       -0.4732
     22 C           5.7621   42.6327    9.1950 C.ar    1  UNL1        0.1658
     23 C           4.4106   42.9464    9.4165 C.ar    1  UNL1        0.0392
     24 C           3.7917   43.9611    8.6810 C.ar    1  UNL1        0.0033
     25 C           4.5175   44.6687    7.7197 C.ar    1  UNL1        0.0025
     26 C           5.8620   44.3619    7.4940 C.ar    1  UNL1        0.0328
     27 C           6.4838   43.3472    8.2284 C.ar    1  UNL1        0.1738
     28 F           7.7883   43.0590    7.9987 F       1  UNL1       -0.2010
     29 C          16.2227   38.2046   11.4829 C.2     1  UNL1        0.3623
     30 O          15.4418   37.8953   12.4253 O.2     1  UNL1       -0.2457
     31 O          17.5763   37.8541   11.5456 O.3     1  UNL1       -0.4458
     32 C          18.4913   38.1508   10.4982 C.3     1  UNL1        0.2087
     33 C          19.6383   37.1576   10.5092 C.3     1  UNL1        0.0513
@<TRIPOS>BOND
     1     1     2    1
     2     1    29    1
     3     1    10    1
     4     1     9    1
     5    29    31    1
     6    32    31    1
     7    32    33    1
     8     3    10    1
     9     4     5   ar
    10     5    16    1
    11     6     7   ar
    12     8    12    1
    13     8     3   ar
    14    18    14    1
    15    18    19    1
    16    19    20    1
    17    20    21    1
    18    22    21    1
    19    23    24   ar
    20    25    26   ar
    21    27    28    1
    22    27    22   ar
    23    12     9   am
    24    16    14   am
    25    29    30    2
    26     3     4   ar
    27     5     6   ar
    28     7     8   ar
    29     9    11    2
    30    14    15    2
    31    22    23   ar
    32    24    25   ar
    33    26    27   ar
    34    12    13    1
    35    16    17    1
@<TRIPOS>MOLECULE
Molport-046-420-638 CSSS14880538712 MCULE-1498866221
 33 35 0 0 0
SMALL
GASTEIGER

@<TRIPOS>ATOM
      1 C          14.9366   38.5243   10.8641 C.3     1  UNL1        0.2880
      2 C          15.5883   38.6930   12.2271 C.3     1  UNL1        0.0650
      3 C          13.2553   40.1662    9.9630 C.ar    1  UNL1        0.1542
      4 C          11.9678   40.7035   10.0526 C.ar    1  UNL1        0.0529
      5 C          11.5291   41.6541    9.1241 C.ar    1  UNL1        0.0534
      6 C          12.3969   42.0669    8.1011 C.ar    1  UNL1        0.0161
      7 C          13.6860   41.5345    8.0104 C.ar    1  UNL1        0.0190
      8 C          14.1132   40.5845    8.9412 C.ar    1  UNL1        0.0850
      9 C          15.8723   39.0656    9.8009 C.2     1  UNL1        0.2732
     10 O          13.6772   39.2170   10.9000 O.3     1  UNL1       -0.4618
     11 O          17.0545   38.6350    9.7201 O.2     1  UNL1       -0.2704
     12 N          15.4283   40.0481    8.8654 N.am    1  UNL1       -0.2783
     13 H          16.0400   40.3583    8.1591 H       1  UNL1        0.1551
     14 C           9.8212   43.4019    9.8997 C.2     1  UNL1        0.2262
     15 O          10.6795   44.1598   10.4248 O.2     1  UNL1       -0.2748
     16 N          10.2019   42.1808    9.2525 N.am    1  UNL1       -0.2838
     17 H           9.4760   41.6481    8.8545 H       1  UNL1        0.1549
     18 C           8.3771   43.7635    9.9796 C.3     1  UNL1        0.0892
     19 C           7.9079   44.4288    8.6918 C.3     1  UNL1        0.0569
     20 C           6.7209   43.6937    8.0885 C.3     1  UNL1        0.2060
     21 O           6.5537   42.4326    8.7244 O.3     1  UNL1       -0.4732
     22 C           5.4349   42.1228    9.5036 C.ar    1  UNL1        0.1658
     23 C           4.1394   42.4919    9.1041 C.ar    1  UNL1        0.0392
     24 C           3.0370   42.1738    9.9022 C.ar    1  UNL1        0.0033
     25 C           3.2205   41.4858   11.1041 C.ar    1  UNL1        0.0025
     26 C           4.5062   41.1159   11.5079 C.ar    1  UNL1        0.0328
     27 C           5.6110   41.4328   10.7113 C.ar    1  UNL1        0.1738
     28 F           6.8528   41.0690   11.1153 F       1  UNL1       -0.2010
     29 C          14.6935   37.0607   10.6140 C.2     1  UNL1        0.3623
     30 O          15.5028   36.3954    9.9096 O.2     1  UNL1       -0.2457
     31 O          13.5752   36.4380   11.1802 O.3     1  UNL1       -0.4458
     32 C          12.5869   35.7825   10.3953 C.3     1  UNL1        0.2087
     33 C          11.5155   36.7702    9.9725 C.3     1  UNL1        0.0513
@<TRIPOS>BOND
     1     1     2    1
     2     1    29    1
     3     1    10    1
     4     1     9    1
     5    29    31    1
     6    32    31    1
     7    32    33    1
     8     3    10    1
     9     4     5   ar
    10     5    16    1
    11     6     7   ar
    12     8    12    1
    13     8     3   ar
    14    18    14    1
    15    18    19    1
    16    19    20    1
    17    20    21    1
    18    22    21    1
    19    23    24   ar
    20    25    26   ar
    21    27    28    1
    22    27    22   ar
    23    12     9   am
    24    16    14   am
    25    29    30    2
    26     3     4   ar
    27     5     6   ar
    28     7     8   ar
    29     9    11    2
    30    14    15    2
    31    22    23   ar
    32    24    25   ar
    33    26    27   ar
    34    12    13    1
    35    16    17    1
@<TRIPOS>MOLECULE
Molport-046-420-638 CSSS14880538712 MCULE-1498866221
 33 35 0 0 0
SMALL
GASTEIGER

@<TRIPOS>ATOM
      1 C          15.3429   38.9745   10.0375 C.3     1  UNL1        0.2880
      2 C          16.5390   39.7289    9.4798 C.3     1  UNL1        0.0650
      3 C          12.9879   39.8359    9.8220 C.ar    1  UNL1        0.1542
      4 C          12.0422   40.7904   10.2079 C.ar    1  UNL1        0.0529
      5 C          10.7213   40.7051    9.7538 C.ar    1  UNL1        0.0534
      6 C          10.3542   39.6514    8.9022 C.ar    1  UNL1        0.0161
      7 C          11.2977   38.6972    8.5115 C.ar    1  UNL1        0.0190
      8 C          12.6131   38.7905    8.9723 C.ar    1  UNL1        0.0850
      9 C          14.9273   37.9073    9.0438 C.2     1  UNL1        0.2732
     10 O          14.3039   39.9369   10.2853 O.3     1  UNL1       -0.4618
     11 O          15.7666   37.0574    8.6405 O.2     1  UNL1       -0.2704
     12 N          13.5835   37.8324    8.5682 N.am    1  UNL1       -0.2783
     13 H          13.3252   37.1087    7.9528 H       1  UNL1        0.1551
     14 C           9.9762   43.1255   10.1538 C.2     1  UNL1        0.2262
     15 O          11.0465   43.6352    9.7278 O.2     1  UNL1       -0.2748
     16 N           9.7832   41.7051   10.1723 N.am    1  UNL1       -0.2838
     17 H           8.9156   41.3826   10.5075 H       1  UNL1        0.1549
     18 C           8.9000   44.0129   10.6798 C.3     1  UNL1        0.0892
     19 C           8.3988   44.9637    9.6000 C.3     1  UNL1        0.0569
     20 C           7.2257   44.3675    8.8372 C.3     1  UNL1        0.2060
     21 O           7.1830   42.9592    9.0311 O.3     1  UNL1       -0.4732
     22 C           7.3070   42.0483    7.9777 C.ar    1  UNL1        0.1658
     23 C           8.3611   42.1375    7.0529 C.ar    1  UNL1        0.0392
     24 C           8.4616   41.2168    6.0062 C.ar    1  UNL1        0.0033
     25 C           7.5107   40.2017    5.8755 C.ar    1  UNL1        0.0025
     26 C           6.4595   40.1072    6.7914 C.ar    1  UNL1        0.0328
     27 C           6.3566   41.0269    7.8398 C.ar    1  UNL1        0.1738
     28 F           5.3313   40.9245    8.7207 F       1  UNL1       -0.2010
     29 C          15.7362   38.3204   11.3341 C.2     1  UNL1        0.3623
     30 O          15.2970   38.7697   12.4291 O.2     1  UNL1       -0.2457
     31 O          16.5774   37.2019   11.3180 O.3     1  UNL1       -0.4458
     32 C          17.9432   37.2790   10.9294 C.3     1  UNL1        0.2087
     33 C          18.5269   38.6198   11.3340 C.3     1  UNL1        0.0513
@<TRIPOS>BOND
     1     1     2    1
     2     1    29    1
     3     1    10    1
     4     1     9    1
     5    29    31    1
     6    32    31    1
     7    32    33    1
     8     3    10    1
     9     4     5   ar
    10     5    16    1
    11     6     7   ar
    12     8    12    1
    13     8     3   ar
    14    18    14    1
    15    18    19    1
    16    19    20    1
    17    20    21    1
    18    22    21    1
    19    23    24   ar
    20    25    26   ar
    21    27    28    1
    22    27    22   ar
    23    12     9   am
    24    16    14   am
    25    29    30    2
    26     3     4   ar
    27     5     6   ar
    28     7     8   ar
    29     9    11    2
    30    14    15    2
    31    22    23   ar
    32    24    25   ar
    33    26    27   ar
    34    12    13    1
    35    16    17    1
@<TRIPOS>MOLECULE
Molport-046-420-638 CSSS14880538712 MCULE-1498866221
 33 35 0 0 0
SMALL
GASTEIGER

@<TRIPOS>ATOM
      1 C          15.0768   38.5907   10.7137 C.3     1  UNL1        0.2880
      2 C          15.6182   38.6844   12.1310 C.3     1  UNL1        0.0650
      3 C          13.3312   40.1746    9.8314 C.ar    1  UNL1        0.1542
      4 C          12.0008   40.6021    9.8693 C.ar    1  UNL1        0.0529
      5 C          11.5494   41.5967    8.9945 C.ar    1  UNL1        0.0534
      6 C          12.4479   42.1651    8.0781 C.ar    1  UNL1        0.0161
      7 C          13.7797   41.7427    8.0396 C.ar    1  UNL1        0.0190
      8 C          14.2193   40.7477    8.9159 C.ar    1  UNL1        0.0850
      9 C          16.0350   39.2954    9.7733 C.2     1  UNL1        0.2732
     10 O          13.7652   39.1795   10.7135 O.3     1  UNL1       -0.4618
     11 O          17.2513   38.9652    9.7453 O.2     1  UNL1       -0.2704
     12 N          15.5762   40.3220    8.8939 N.am    1  UNL1       -0.2783
     13 H          16.2069   40.7404    8.2643 H       1  UNL1        0.1551
     14 C           9.6624   43.1676    9.7325 C.2     1  UNL1        0.2262
     15 O          10.4253   43.9732   10.3288 O.2     1  UNL1       -0.2748
     16 N          10.1778   42.0071    9.0671 N.am    1  UNL1       -0.2838
     17 H           9.5210   41.4318    8.6124 H       1  UNL1        0.1549
     18 C           8.1908   43.4057    9.7448 C.3     1  UNL1        0.0892
     19 C           7.7280   44.0365    8.4375 C.3     1  UNL1        0.0569
     20 C           7.0298   43.0195    7.5478 C.3     1  UNL1        0.2060
     21 O           7.8999   42.6094    6.5002 O.3     1  UNL1       -0.4732
     22 C           8.4125   41.3118    6.4094 C.ar    1  UNL1        0.1658
     23 C           7.7155   40.2107    6.9350 C.ar    1  UNL1        0.0392
     24 C           8.2505   38.9234    6.8349 C.ar    1  UNL1        0.0033
     25 C           9.4845   38.7268    6.2101 C.ar    1  UNL1        0.0025
     26 C          10.1833   39.8173    5.6853 C.ar    1  UNL1        0.0328
     27 C           9.6503   41.1064    5.7840 C.ar    1  UNL1        0.1738
     28 F          10.3391   42.1556    5.2717 F       1  UNL1       -0.2010
     29 C          14.9727   37.1414   10.3229 C.2     1  UNL1        0.3623
     30 O          15.6691   36.6902    9.3715 O.2     1  UNL1       -0.2457
     31 O          14.1127   36.2937   11.0305 O.3     1  UNL1       -0.4458
     32 C          13.0769   35.5540   10.3961 C.3     1  UNL1        0.2087
     33 C          11.7951   36.3654   10.3711 C.3     1  UNL1        0.0513
@<TRIPOS>BOND
     1     1     2    1
     2     1    29    1
     3     1    10    1
     4     1     9    1
     5    29    31    1
     6    32    31    1
     7    32    33    1
     8     3    10    1
     9     4     5   ar
    10     5    16    1
    11     6     7   ar
    12     8    12    1
    13     8     3   ar
    14    18    14    1
    15    18    19    1
    16    19    20    1
    17    20    21    1
    18    22    21    1
    19    23    24   ar
    20    25    26   ar
    21    27    28    1
    22    27    22   ar
    23    12     9   am
    24    16    14   am
    25    29    30    2
    26     3     4   ar
    27     5     6   ar
    28     7     8   ar
    29     9    11    2
    30    14    15    2
    31    22    23   ar
    32    24    25   ar
    33    26    27   ar
    34    12    13    1
    35    16    17    1
@<TRIPOS>MOLECULE
Molport-046-420-638 CSSS14880538712 MCULE-1498866221
 33 35 0 0 0
SMALL
GASTEIGER

@<TRIPOS>ATOM
      1 C           9.1405   39.7074    6.7265 C.3     1  UNL1        0.2880
      2 C           8.3879   39.7612    5.4069 C.3     1  UNL1        0.0650
      3 C          11.1770   41.1171    7.1737 C.ar    1  UNL1        0.1542
      4 C          12.5231   41.3661    6.8908 C.ar    1  UNL1        0.0529
      5 C          13.2230   42.3585    7.5863 C.ar    1  UNL1        0.0534
      6 C          12.5583   43.1059    8.5710 C.ar    1  UNL1        0.0161
      7 C          11.2116   42.8621    8.8542 C.ar    1  UNL1        0.0190
      8 C          10.5229   41.8677    8.1556 C.ar    1  UNL1        0.0850
      9 C           8.4369   40.5992    7.7310 C.2     1  UNL1        0.2732
     10 O          10.4929   40.1213    6.4685 O.3     1  UNL1       -0.4618
     11 O           7.2120   40.4309    7.9773 O.2     1  UNL1       -0.2704
     12 N           9.1484   41.6226    8.4268 N.am    1  UNL1       -0.2783
     13 H           8.6819   42.1654    9.1027 H       1  UNL1        0.1551
     14 C          15.1472   43.7018    6.5537 C.2     1  UNL1        0.2262
     15 O          14.4116   44.6392    6.1450 O.2     1  UNL1       -0.2748
     16 N          14.6019   42.5828    7.2645 N.am    1  UNL1       -0.2838
     17 H          15.2413   41.8963    7.5631 H       1  UNL1        0.1549
     18 C          16.6094   43.7384    6.2656 C.3     1  UNL1        0.0892
     19 C          17.4215   43.7104    7.5544 C.3     1  UNL1        0.0569
     20 C          17.7419   42.2850    7.9771 C.3     1  UNL1        0.2060
     21 O          16.8250   41.8546    8.9755 O.3     1  UNL1       -0.4732
     22 C          16.8847   40.5849    9.5578 C.ar    1  UNL1        0.1658
     23 C          18.1072   39.9132    9.7260 C.ar    1  UNL1        0.0392
     24 C          18.1405   38.6428   10.3078 C.ar    1  UNL1        0.0033
     25 C          16.9540   38.0347   10.7251 C.ar    1  UNL1        0.0025
     26 C          15.7344   38.6968   10.5607 C.ar    1  UNL1        0.0328
     27 C          15.6982   39.9680    9.9789 C.ar    1  UNL1        0.1738
     28 F          14.5083   40.5988    9.8243 F       1  UNL1       -0.2010
     29 C           9.1408   38.2910    7.2340 C.2     1  UNL1        0.3623
     30 O           8.7257   37.3539    6.4969 O.2     1  UNL1       -0.2457
     31 O           9.6191   38.0165    8.5203 O.3     1  UNL1       -0.4458
     32 C          11.0063   38.0069    8.8334 C.3     1  UNL1        0.2087
     33 C          11.2819   37.0245    9.9565 C.3     1  UNL1        0.0513
@<TRIPOS>BOND
     1     1     2    1
     2     1    29    1
     3     1    10    1
     4     1     9    1
     5    29    31    1
     6    32    31    1
     7    32    33    1
     8     3    10    1
     9     4     5   ar
    10     5    16    1
    11     6     7   ar
    12     8    12    1
    13     8     3   ar
    14    18    14    1
    15    18    19    1
    16    19    20    1
    17    20    21    1
    18    22    21    1
    19    23    24   ar
    20    25    26   ar
    21    27    28    1
    22    27    22   ar
    23    12     9   am
    24    16    14   am
    25    29    30    2
    26     3     4   ar
    27     5     6   ar
    28     7     8   ar
    29     9    11    2
    30    14    15    2
    31    22    23   ar
    32    24    25   ar
    33    26    27   ar
    34    12    13    1
    35    16    17    1
@<TRIPOS>MOLECULE
Molport-046-420-638 CSSS14880538712 MCULE-1498866221
 33 35 0 0 0
SMALL
GASTEIGER

@<TRIPOS>ATOM
      1 C          14.6943   38.7463   10.1259 C.3     1  UNL1        0.2880
      2 C          14.8697   38.7737   11.6356 C.3     1  UNL1        0.0650
      3 C          12.8927   40.0574    8.9556 C.ar    1  UNL1        0.1542
      4 C          11.5278   40.2129    8.6965 C.ar    1  UNL1        0.0529
      5 C          11.0814   41.1985    7.8091 C.ar    1  UNL1        0.0534
      6 C          12.0188   42.0341    7.1821 C.ar    1  UNL1        0.0161
      7 C          13.3840   41.8839    7.4413 C.ar    1  UNL1        0.0190
      8 C          13.8191   40.8955    8.3273 C.ar    1  UNL1        0.0850
      9 C          15.6645   39.7291    9.4998 C.2     1  UNL1        0.2732
     10 O          13.3211   39.0670    9.8458 O.3     1  UNL1       -0.4618
     11 O          16.8978   39.6451    9.7473 O.2     1  UNL1       -0.2704
     12 N          15.2052   40.7449    8.6083 N.am    1  UNL1       -0.2783
     13 H          15.8559   41.3488    8.1828 H       1  UNL1        0.1551
     14 C           9.0142   41.3417    6.2993 C.2     1  UNL1        0.2262
     15 O           9.6617   41.2237    5.2253 O.2     1  UNL1       -0.2748
     16 N           9.6732   41.3253    7.5723 N.am    1  UNL1       -0.2838
     17 H           9.0986   41.4100    8.3671 H       1  UNL1        0.1549
     18 C           7.5368   41.5349    6.2473 C.3     1  UNL1        0.0892
     19 C           7.1824   43.0117    6.1267 C.3     1  UNL1        0.0569
     20 C           6.1322   43.4152    7.1501 C.3     1  UNL1        0.2060
     21 O           6.7451   44.1066    8.2313 O.3     1  UNL1       -0.4732
     22 C           7.4619   43.4511    9.2368 C.ar    1  UNL1        0.1658
     23 C           7.0373   42.2145    9.7515 C.ar    1  UNL1        0.0392
     24 C           7.7693   41.5804   10.7592 C.ar    1  UNL1        0.0033
     25 C           8.9293   42.1765   11.2600 C.ar    1  UNL1        0.0025
     26 C           9.3574   43.4063   10.7530 C.ar    1  UNL1        0.0328
     27 C           8.6270   44.0429    9.7446 C.ar    1  UNL1        0.1738
     28 F           9.0528   45.2362    9.2625 F       1  UNL1       -0.2010
     29 C          14.9955   37.3609    9.6218 C.2     1  UNL1        0.3623
     30 O          15.6821   37.2033    8.5743 O.2     1  UNL1       -0.2457
     31 O          14.5247   36.2491   10.3297 O.3     1  UNL1       -0.4458
     32 C          13.4768   35.4207    9.8417 C.3     1  UNL1        0.2087
     33 C          12.1671   35.7821   10.5171 C.3     1  UNL1        0.0513
@<TRIPOS>BOND
     1     1     2    1
     2     1    29    1
     3     1    10    1
     4     1     9    1
     5    29    31    1
     6    32    31    1
     7    32    33    1
     8     3    10    1
     9     4     5   ar
    10     5    16    1
    11     6     7   ar
    12     8    12    1
    13     8     3   ar
    14    18    14    1
    15    18    19    1
    16    19    20    1
    17    20    21    1
    18    22    21    1
    19    23    24   ar
    20    25    26   ar
    21    27    28    1
    22    27    22   ar
    23    12     9   am
    24    16    14   am
    25    29    30    2
    26     3     4   ar
    27     5     6   ar
    28     7     8   ar
    29     9    11    2
    30    14    15    2
    31    22    23   ar
    32    24    25   ar
    33    26    27   ar
    34    12    13    1
    35    16    17    1
@<TRIPOS>MOLECULE
Molport-046-420-638 CSSS14880538712 MCULE-1498866221
 33 35 0 0 0
SMALL
GASTEIGER

@<TRIPOS>ATOM
      1 C          15.2432   38.5507   10.9703 C.3     1  UNL1        0.2880
      2 C          16.1183   38.7909   12.1899 C.3     1  UNL1        0.0650
      3 C          13.1659   39.8976   10.5172 C.ar    1  UNL1        0.1542
      4 C          11.8518   40.1975   10.8876 C.ar    1  UNL1        0.0529
      5 C          11.0834   41.0833   10.1238 C.ar    1  UNL1        0.0534
      6 C          11.6469   41.6721    8.9810 C.ar    1  UNL1        0.0161
      7 C          12.9616   41.3773    8.6096 C.ar    1  UNL1        0.0190
      8 C          13.7191   40.4901    9.3778 C.ar    1  UNL1        0.0850
      9 C          15.8428   39.2791    9.7833 C.2     1  UNL1        0.2732
     10 O          13.9195   39.0101   11.2926 O.3     1  UNL1       -0.4618
     11 O          17.0393   39.0655    9.4487 O.2     1  UNL1       -0.2704
     12 N          15.0626   40.1956    9.0157 N.am    1  UNL1       -0.2783
     13 H          15.4595   40.6291    8.2260 H       1  UNL1        0.1551
     14 C           9.1980   42.6464   10.8821 C.2     1  UNL1        0.2262
     15 O           9.9005   43.6906   10.8269 O.2     1  UNL1       -0.2748
     16 N           9.7405   41.3646   10.5392 N.am    1  UNL1       -0.2838
     17 H           9.1264   40.5971   10.5947 H       1  UNL1        0.1549
     18 C           7.7836   42.7380   11.3440 C.3     1  UNL1        0.0892
     19 C           7.1918   41.3526   11.5713 C.3     1  UNL1        0.0569
     20 C           5.7282   41.3007   11.1608 C.3     1  UNL1        0.2060
     21 O           5.6186   41.3128    9.7429 O.3     1  UNL1       -0.4732
     22 C           5.3200   42.4710    9.0189 C.ar    1  UNL1        0.1658
     23 C           4.0946   43.1394    9.1797 C.ar    1  UNL1        0.0392
     24 C           3.8179   44.2937    8.4417 C.ar    1  UNL1        0.0033
     25 C           4.7621   44.7879    7.5385 C.ar    1  UNL1        0.0025
     26 C           5.9829   44.1281    7.3733 C.ar    1  UNL1        0.0328
     27 C           6.2624   42.9731    8.1103 C.ar    1  UNL1        0.1738
     28 F           7.4500   42.3421    7.9396 F       1  UNL1       -0.2010
     29 C          15.2017   37.0752   10.6790 C.2     1  UNL1        0.3623
     30 O          16.1631   36.5210   10.0771 O.2     1  UNL1       -0.2457
     31 O          14.0997   36.3184   11.0935 O.3     1  UNL1       -0.4458
     32 C          13.1648   35.7647   10.1760 C.3     1  UNL1        0.2087
     33 C          11.7513   36.1417   10.5787 C.3     1  UNL1        0.0513
@<TRIPOS>BOND
     1     1     2    1
     2     1    29    1
     3     1    10    1
     4     1     9    1
     5    29    31    1
     6    32    31    1
     7    32    33    1
     8     3    10    1
     9     4     5   ar
    10     5    16    1
    11     6     7   ar
    12     8    12    1
    13     8     3   ar
    14    18    14    1
    15    18    19    1
    16    19    20    1
    17    20    21    1
    18    22    21    1
    19    23    24   ar
    20    25    26   ar
    21    27    28    1
    22    27    22   ar
    23    12     9   am
    24    16    14   am
    25    29    30    2
    26     3     4   ar
    27     5     6   ar
    28     7     8   ar
    29     9    11    2
    30    14    15    2
    31    22    23   ar
    32    24    25   ar
    33    26    27   ar
    34    12    13    1
    35    16    17    1
@<TRIPOS>MOLECULE
Molport-046-420-638 CSSS14880538712 MCULE-1498866221
 33 35 0 0 0
SMALL
GASTEIGER

@<TRIPOS>ATOM
      1 C          15.1479   38.6255   10.6841 C.3     1  UNL1        0.2880
      2 C          15.5307   38.6979   12.1535 C.3     1  UNL1        0.0650
      3 C          13.5701   40.2731    9.6209 C.ar    1  UNL1        0.1542
      4 C          12.2601   40.7488    9.5126 C.ar    1  UNL1        0.0529
      5 C          11.9454   41.7602    8.5980 C.ar    1  UNL1        0.0534
      6 C          12.9605   42.2964    7.7904 C.ar    1  UNL1        0.0161
      7 C          14.2721   41.8257    7.8984 C.ar    1  UNL1        0.0190
      8 C          14.5749   40.8144    8.8131 C.ar    1  UNL1        0.0850
      9 C          16.2298   39.2959    9.8601 C.2     1  UNL1        0.2732
     10 O          13.8666   39.2618   10.5408 O.3     1  UNL1       -0.4618
     11 O          17.4290   38.9214    9.9661 O.2     1  UNL1       -0.2704
     12 N          15.9095   40.3394    8.9403 N.am    1  UNL1       -0.2783
     13 H          16.6212   40.7352    8.3871 H       1  UNL1        0.1551
     14 C           9.9505   43.1621    9.3907 C.2     1  UNL1        0.2262
     15 O          10.5747   43.7018   10.3425 O.2     1  UNL1       -0.2748
     16 N          10.5900   42.2204    8.5194 N.am    1  UNL1       -0.2838
     17 H          10.0407   41.8509    7.7906 H       1  UNL1        0.1549
     18 C           8.5094   43.4827    9.1837 C.3     1  UNL1        0.0892
     19 C           8.0235   42.9695    7.8340 C.3     1  UNL1        0.0569
     20 C           6.5125   43.0880    7.7071 C.3     1  UNL1        0.2060
     21 O           5.9458   43.4611    8.9570 O.3     1  UNL1       -0.4732
     22 C           5.1194   42.6088    9.6955 C.ar    1  UNL1        0.1658
     23 C           5.6539   41.6274   10.5472 C.ar    1  UNL1        0.0392
     24 C           4.8069   40.7848   11.2725 C.ar    1  UNL1        0.0033
     25 C           3.4212   40.9160   11.1521 C.ar    1  UNL1        0.0025
     26 C           2.8827   41.8897   10.3067 C.ar    1  UNL1        0.0328
     27 C           3.7278   42.7341    9.5799 C.ar    1  UNL1        0.1738
     28 F           3.1923   43.6737    8.7625 F       1  UNL1       -0.2010
     29 C          15.0357   37.1814   10.2767 C.2     1  UNL1        0.3623
     30 O          13.9164   36.5985   10.3114 O.2     1  UNL1       -0.2457
     31 O          16.1752   36.4938    9.8437 O.3     1  UNL1       -0.4458
     32 C          16.2943   35.9647    8.5289 C.3     1  UNL1        0.2087
     33 C          15.7509   34.5488    8.4840 C.3     1  UNL1        0.0513
@<TRIPOS>BOND
     1     1     2    1
     2     1    29    1
     3     1    10    1
     4     1     9    1
     5    29    31    1
     6    32    31    1
     7    32    33    1
     8     3    10    1
     9     4     5   ar
    10     5    16    1
    11     6     7   ar
    12     8    12    1
    13     8     3   ar
    14    18    14    1
    15    18    19    1
    16    19    20    1
    17    20    21    1
    18    22    21    1
    19    23    24   ar
    20    25    26   ar
    21    27    28    1
    22    27    22   ar
    23    12     9   am
    24    16    14   am
    25    29    30    2
    26     3     4   ar
    27     5     6   ar
    28     7     8   ar
    29     9    11    2
    30    14    15    2
    31    22    23   ar
    32    24    25   ar
    33    26    27   ar
    34    12    13    1
    35    16    17    1
