@<TRIPOS>MOLECULE
MolPort-001-939-488 2057877 CSSS00121710954 LN01120534 MCULE-6418752900 PubChem-1722201 ZINC000002057877 ZINC02057877
 23 24 0 0 0
SMALL
GASTEIGER

@<TRIPOS>ATOM
      1 C           8.6681   41.3533    6.2245 C.ar    1  UNL1        0.1123
      2 C          11.0105   41.2536    6.6944 C.ar    1  UNL1        0.1880
      3 N           9.4072   40.9740    5.1593 N.ar    1  UNL1       -0.1440
      4 N          10.7121   40.9158    5.4204 N.ar    1  UNL1       -0.1256
      5 S           9.6339   41.6514    7.5750 S.2     1  UNL1       -0.0347
      6 C          13.3668   42.1942    6.8480 C.2     1  UNL1        0.2509
      7 N          12.3354   41.2759    7.2338 N.am    1  UNL1       -0.2592
      8 O          13.1437   43.0711    5.9691 O.2     1  UNL1       -0.2698
      9 H          12.5561   40.6090    7.9235 H       1  UNL1        0.1571
     10 C          14.6945   42.1129    7.4816 C.ar    1  UNL1        0.0534
     11 C          15.7122   43.0070    7.1160 C.ar    1  UNL1        0.0003
     12 C          16.9715   42.9292    7.7177 C.ar    1  UNL1       -0.0217
     13 C          18.0429   43.8806    7.3237 C.3     1  UNL1        0.0310
     14 C          17.2230   41.9569    8.6894 C.ar    1  UNL1       -0.0043
     15 C          16.2153   41.0624    9.0595 C.ar    1  UNL1       -0.0002
     16 C          14.9557   41.1402    8.4578 C.ar    1  UNL1        0.0045
     17 C           7.1887   41.5125    6.1786 C.3     1  UNL1        0.0545
     18 C           6.6920   42.1495    7.4648 C.3     1  UNL1        0.0069
     19 C           6.1121   41.0939    8.3936 C.3     1  UNL1        0.0004
     20 C           5.9912   41.6040    9.8255 C.3     1  UNL1        0.0000
     21 C           4.6271   42.2266   10.0799 C.3     1  UNL1        0.0000
     22 C           3.9816   40.2250   11.3842 C.3     1  UNL1        0.0000
     23 C           4.0564   41.7366   11.3972 C.3     1  UNL1        0.0000
@<TRIPOS>BOND
     1    22    23    1
     2    23    21    1
     3    21    20    1
     4    20    19    1
     5    19    18    1
     6    18    17    1
     7    17     1    1
     8     1     5   ar
     9     2     7    1
    10     2     5   ar
    11     6    10    1
    12    11    12   ar
    13    13    12    1
    14    14    15   ar
    15    16    10   ar
    16     3     4   ar
    17     7     6   am
    18     1     3   ar
    19     2     4   ar
    20     6     8    2
    21    10    11   ar
    22    12    14   ar
    23    15    16   ar
    24     7     9    1
@<TRIPOS>MOLECULE
MolPort-001-939-488 2057877 CSSS00121710954 LN01120534 MCULE-6418752900 PubChem-1722201 ZINC000002057877 ZINC02057877
 23 24 0 0 0
SMALL
GASTEIGER

@<TRIPOS>ATOM
      1 C           9.0595   41.3612    6.2050 C.ar    1  UNL1        0.1123
      2 C          11.4250   41.4319    6.5469 C.ar    1  UNL1        0.1880
      3 N           9.7635   40.9385    5.1324 N.ar    1  UNL1       -0.1440
      4 N          11.0814   40.9752    5.3224 N.ar    1  UNL1       -0.1256
      5 S          10.0748   41.8221    7.4707 S.2     1  UNL1       -0.0347
      6 C          13.6345   42.6781    6.7057 C.2     1  UNL1        0.2509
      7 N          12.7725   41.5725    7.0066 N.am    1  UNL1       -0.2592
      8 O          13.2250   43.6281    5.9840 O.2     1  UNL1       -0.2698
      9 H          13.1361   40.8545    7.5736 H       1  UNL1        0.1571
     10 C          15.0065   42.7043    7.2425 C.ar    1  UNL1        0.0534
     11 C          15.4341   41.7215    8.1480 C.ar    1  UNL1        0.0003
     12 C          16.7358   41.7471    8.6566 C.ar    1  UNL1       -0.0217
     13 C          17.1794   40.7017    9.6152 C.3     1  UNL1        0.0310
     14 C          17.6199   42.7556    8.2641 C.ar    1  UNL1       -0.0043
     15 C          17.2025   43.7385    7.3628 C.ar    1  UNL1       -0.0002
     16 C          15.9005   43.7128    6.8539 C.ar    1  UNL1        0.0045
     17 C           7.5727   41.4326    6.2311 C.3     1  UNL1        0.0545
     18 C           7.1118   42.2918    7.3957 C.3     1  UNL1        0.0069
     19 C           6.4271   43.5524    6.8902 C.3     1  UNL1        0.0004
     20 C           5.8445   44.3775    8.0326 C.3     1  UNL1        0.0000
     21 C           4.3875   44.0231    8.2869 C.3     1  UNL1        0.0000
     22 C           3.5232   41.9252    9.2746 C.3     1  UNL1        0.0000
     23 C           4.2512   43.2197    9.5663 C.3     1  UNL1        0.0000
@<TRIPOS>BOND
     1    22    23    1
     2    23    21    1
     3    21    20    1
     4    20    19    1
     5    19    18    1
     6    18    17    1
     7    17     1    1
     8     1     5   ar
     9     2     7    1
    10     2     5   ar
    11     6    10    1
    12    11    12   ar
    13    13    12    1
    14    14    15   ar
    15    16    10   ar
    16     3     4   ar
    17     7     6   am
    18     1     3   ar
    19     2     4   ar
    20     6     8    2
    21    10    11   ar
    22    12    14   ar
    23    15    16   ar
    24     7     9    1
@<TRIPOS>MOLECULE
MolPort-001-939-488 2057877 CSSS00121710954 LN01120534 MCULE-6418752900 PubChem-1722201 ZINC000002057877 ZINC02057877
 23 24 0 0 0
SMALL
GASTEIGER

@<TRIPOS>ATOM
      1 C           9.0682   40.2330    5.5710 C.ar    1  UNL1        0.1123
      2 C          11.1833   41.3415    5.4474 C.ar    1  UNL1        0.1880
      3 N           9.8143   39.8363    4.5171 N.ar    1  UNL1       -0.1440
      4 N          10.9938   40.4514    4.4484 N.ar    1  UNL1       -0.1256
      5 S           9.8616   41.4078    6.4853 S.2     1  UNL1       -0.0347
      6 C          13.3275   41.9787    6.6544 C.2     1  UNL1        0.2509
      7 N          12.3618   42.1370    5.6064 N.am    1  UNL1       -0.2592
      8 O          13.1761   41.0849    7.5315 O.2     1  UNL1       -0.2698
      9 H          12.5222   42.8482    4.9448 H       1  UNL1        0.1571
     10 C          14.5031   42.8654    6.7071 C.ar    1  UNL1        0.0534
     11 C          15.6141   42.5262    7.4940 C.ar    1  UNL1        0.0003
     12 C          16.7291   43.3678    7.5433 C.ar    1  UNL1       -0.0217
     13 C          17.9010   42.9999    8.3797 C.3     1  UNL1        0.0310
     14 C          16.7417   44.5552    6.8064 C.ar    1  UNL1       -0.0043
     15 C          15.6395   44.9008    6.0201 C.ar    1  UNL1       -0.0002
     16 C          14.5244   44.0590    5.9707 C.ar    1  UNL1        0.0045
     17 C           7.7041   39.7071    5.8517 C.3     1  UNL1        0.0545
     18 C           7.7147   38.8828    7.1274 C.3     1  UNL1        0.0069
     19 C           9.0106   38.0950    7.2426 C.3     1  UNL1        0.0004
     20 C           9.9127   38.6462    8.3415 C.3     1  UNL1        0.0000
     21 C          10.5354   37.5274    9.1622 C.3     1  UNL1        0.0000
     22 C          12.2238   38.9837   10.2360 C.3     1  UNL1        0.0000
     23 C          12.0204   37.7712    9.3532 C.3     1  UNL1        0.0000
@<TRIPOS>BOND
     1    22    23    1
     2    23    21    1
     3    21    20    1
     4    20    19    1
     5    19    18    1
     6    18    17    1
     7    17     1    1
     8     1     5   ar
     9     2     7    1
    10     2     5   ar
    11     6    10    1
    12    11    12   ar
    13    13    12    1
    14    14    15   ar
    15    16    10   ar
    16     3     4   ar
    17     7     6   am
    18     1     3   ar
    19     2     4   ar
    20     6     8    2
    21    10    11   ar
    22    12    14   ar
    23    15    16   ar
    24     7     9    1
@<TRIPOS>MOLECULE
MolPort-001-939-488 2057877 CSSS00121710954 LN01120534 MCULE-6418752900 PubChem-1722201 ZINC000002057877 ZINC02057877
 23 24 0 0 0
SMALL
GASTEIGER

@<TRIPOS>ATOM
      1 C          12.0268   41.7150    7.9799 C.ar    1  UNL1        0.1123
      2 C           9.6610   41.5852    8.3019 C.ar    1  UNL1        0.1880
      3 N          11.3536   41.4083    6.8496 N.ar    1  UNL1       -0.1440
      4 N          10.0353   41.3379    7.0272 N.ar    1  UNL1       -0.1256
      5 S          10.9827   41.9083    9.2905 S.2     1  UNL1       -0.0347
      6 C           7.3538   42.6221    8.5504 C.2     1  UNL1        0.2509
      7 N           8.3064   41.5716    8.7620 N.am    1  UNL1       -0.2592
      8 O           7.6816   43.6621    7.9162 O.2     1  UNL1       -0.2698
      9 H           8.0049   40.7794    9.2627 H       1  UNL1        0.1571
     10 C           5.9844   42.4861    9.0770 C.ar    1  UNL1        0.0534
     11 C           5.6639   41.4463    9.9628 C.ar    1  UNL1        0.0003
     12 C           4.3645   41.3181   10.4620 C.ar    1  UNL1       -0.0217
     13 C           4.0348   40.2134   11.3997 C.3     1  UNL1        0.0310
     14 C           3.3756   42.2282   10.0791 C.ar    1  UNL1       -0.0043
     15 C           3.6861   43.2668    9.1973 C.ar    1  UNL1       -0.0002
     16 C           4.9857   43.3951    8.6981 C.ar    1  UNL1        0.0045
     17 C          13.5097   41.8309    8.0427 C.3     1  UNL1        0.0545
     18 C          14.0684   42.1364    6.6638 C.3     1  UNL1        0.0069
     19 C          13.9587   43.6228    6.3611 C.3     1  UNL1        0.0004
     20 C          15.1241   44.1150    5.5098 C.3     1  UNL1        0.0000
     21 C          16.2086   44.7497    6.3665 C.3     1  UNL1        0.0000
     22 C          17.8430   43.8272    7.9795 C.3     1  UNL1        0.0000
     23 C          17.3751   43.7958    6.5405 C.3     1  UNL1        0.0000
@<TRIPOS>BOND
     1    22    23    1
     2    23    21    1
     3    21    20    1
     4    20    19    1
     5    19    18    1
     6    18    17    1
     7    17     1    1
     8     1     5   ar
     9     2     7    1
    10     2     5   ar
    11     6    10    1
    12    11    12   ar
    13    13    12    1
    14    14    15   ar
    15    16    10   ar
    16     3     4   ar
    17     7     6   am
    18     1     3   ar
    19     2     4   ar
    20     6     8    2
    21    10    11   ar
    22    12    14   ar
    23    15    16   ar
    24     7     9    1
@<TRIPOS>MOLECULE
MolPort-001-939-488 2057877 CSSS00121710954 LN01120534 MCULE-6418752900 PubChem-1722201 ZINC000002057877 ZINC02057877
 23 24 0 0 0
SMALL
GASTEIGER

@<TRIPOS>ATOM
      1 C           8.5212   40.1499    5.9147 C.ar    1  UNL1        0.1123
      2 C          10.7458   40.9626    5.5856 C.ar    1  UNL1        0.1880
      3 N           8.8783   40.2062    4.6131 N.ar    1  UNL1       -0.1440
      4 N          10.1182   40.6567    4.4286 N.ar    1  UNL1       -0.1256
      5 S           9.7645   40.6826    6.9225 S.2     1  UNL1       -0.0347
      6 C          12.6283   42.1683    6.7949 C.2     1  UNL1        0.2509
      7 N          12.0817   41.4676    5.6697 N.am    1  UNL1       -0.2592
      8 O          11.9209   42.3843    7.8167 O.2     1  UNL1       -0.2698
      9 H          12.6715   41.3228    4.8948 H       1  UNL1        0.1571
     10 C          14.0241   42.6388    6.7571 C.ar    1  UNL1        0.0534
     11 C          14.9643   42.1483    7.6759 C.ar    1  UNL1        0.0003
     12 C          16.2883   42.5950    7.6393 C.ar    1  UNL1       -0.0217
     13 C          17.2768   42.0696    8.6167 C.3     1  UNL1        0.0310
     14 C          16.6824   43.5358    6.6841 C.ar    1  UNL1       -0.0043
     15 C          15.7526   44.0298    5.7653 C.ar    1  UNL1       -0.0002
     16 C          14.4284   43.5828    5.8017 C.ar    1  UNL1        0.0045
     17 C           7.1791   39.7000    6.3759 C.3     1  UNL1        0.0545
     18 C           6.6070   40.6970    7.3686 C.3     1  UNL1        0.0069
     19 C           6.8174   42.1205    6.8762 C.3     1  UNL1        0.0004
     20 C           6.0912   43.1359    7.7520 C.3     1  UNL1        0.0000
     21 C           7.0592   44.1420    8.3553 C.3     1  UNL1        0.0000
     22 C           8.9481   44.3892    9.9348 C.3     1  UNL1        0.0000
     23 C           8.2238   43.4291    9.0159 C.3     1  UNL1        0.0000
@<TRIPOS>BOND
     1    22    23    1
     2    23    21    1
     3    21    20    1
     4    20    19    1
     5    19    18    1
     6    18    17    1
     7    17     1    1
     8     1     5   ar
     9     2     7    1
    10     2     5   ar
    11     6    10    1
    12    11    12   ar
    13    13    12    1
    14    14    15   ar
    15    16    10   ar
    16     3     4   ar
    17     7     6   am
    18     1     3   ar
    19     2     4   ar
    20     6     8    2
    21    10    11   ar
    22    12    14   ar
    23    15    16   ar
    24     7     9    1
@<TRIPOS>MOLECULE
MolPort-001-939-488 2057877 CSSS00121710954 LN01120534 MCULE-6418752900 PubChem-1722201 ZINC000002057877 ZINC02057877
 23 24 0 0 0
SMALL
GASTEIGER

@<TRIPOS>ATOM
      1 C           8.2772   40.4129    6.1283 C.ar    1  UNL1        0.1123
      2 C          10.3722   41.5130    5.7842 C.ar    1  UNL1        0.1880
      3 N           8.7815   40.2186    4.8903 N.ar    1  UNL1       -0.1440
      4 N           9.9497   40.8290    4.6981 N.ar    1  UNL1       -0.1256
      5 S           9.2867   41.3892    7.0628 S.2     1  UNL1       -0.0347
      6 C          12.7583   41.8703    6.5838 C.2     1  UNL1        0.2509
      7 N          11.5925   42.2575    5.8443 N.am    1  UNL1       -0.2592
      8 O          12.7638   40.8000    7.2512 O.2     1  UNL1       -0.2698
      9 H          11.6350   43.1012    5.3386 H       1  UNL1        0.1571
     10 C          13.9564   42.7278    6.5640 C.ar    1  UNL1        0.0534
     11 C          15.0979   42.3704    7.2974 C.ar    1  UNL1        0.0003
     12 C          16.2342   43.1843    7.2780 C.ar    1  UNL1       -0.0217
     13 C          17.4384   42.7974    8.0580 C.3     1  UNL1        0.0310
     14 C          16.2377   44.3619    6.5255 C.ar    1  UNL1       -0.0043
     15 C          15.1052   44.7255    5.7922 C.ar    1  UNL1       -0.0002
     16 C          13.9687   43.9113    5.8115 C.ar    1  UNL1        0.0045
     17 C           6.9742   39.8510    6.5783 C.3     1  UNL1        0.0545
     18 C           6.1824   40.9064    7.3307 C.3     1  UNL1        0.0069
     19 C           6.7189   41.0685    8.7446 C.3     1  UNL1        0.0004
     20 C           5.5957   41.2597    9.7581 C.3     1  UNL1        0.0000
     21 C           4.2421   41.3681    9.0733 C.3     1  UNL1        0.0000
     22 C           3.9977   43.8117    8.7679 C.3     1  UNL1        0.0000
     23 C           3.5062   42.6084    9.5434 C.3     1  UNL1        0.0000
@<TRIPOS>BOND
     1    22    23    1
     2    23    21    1
     3    21    20    1
     4    20    19    1
     5    19    18    1
     6    18    17    1
     7    17     1    1
     8     1     5   ar
     9     2     7    1
    10     2     5   ar
    11     6    10    1
    12    11    12   ar
    13    13    12    1
    14    14    15   ar
    15    16    10   ar
    16     3     4   ar
    17     7     6   am
    18     1     3   ar
    19     2     4   ar
    20     6     8    2
    21    10    11   ar
    22    12    14   ar
    23    15    16   ar
    24     7     9    1
@<TRIPOS>MOLECULE
MolPort-001-939-488 2057877 CSSS00121710954 LN01120534 MCULE-6418752900 PubChem-1722201 ZINC000002057877 ZINC02057877
 23 24 0 0 0
SMALL
GASTEIGER

@<TRIPOS>ATOM
      1 C          11.6527   37.7320    9.2050 C.ar    1  UNL1        0.1123
      2 C          12.2927   39.7333    8.0638 C.ar    1  UNL1        0.1880
      3 N          10.5990   38.4363    8.7376 N.ar    1  UNL1       -0.1440
      4 N          10.9543   39.5503    8.0996 N.ar    1  UNL1       -0.1256
      5 S          13.1152   38.4907    8.8435 S.2     1  UNL1       -0.0347
      6 C          14.1502   41.4608    7.9031 C.2     1  UNL1        0.2509
      7 N          12.9380   40.8490    7.4426 N.am    1  UNL1       -0.2592
      8 O          14.7355   41.0221    8.9308 O.2     1  UNL1       -0.2698
      9 H          12.5170   41.2259    6.6364 H       1  UNL1        0.1571
     10 C          14.7152   42.6083    7.1717 C.ar    1  UNL1        0.0534
     11 C          16.0769   42.9255    7.2899 C.ar    1  UNL1        0.0003
     12 C          16.6121   44.0142    6.5956 C.ar    1  UNL1       -0.0217
     13 C          18.0555   44.3422    6.7273 C.3     1  UNL1        0.0310
     14 C          15.7901   44.7944    5.7781 C.ar    1  UNL1       -0.0043
     15 C          14.4328   44.4858    5.6546 C.ar    1  UNL1       -0.0002
     16 C          13.8975   43.3967    6.3489 C.ar    1  UNL1        0.0045
     17 C          11.5134   36.4623    9.9697 C.3     1  UNL1        0.0545
     18 C          12.5429   36.4091   11.0852 C.3     1  UNL1        0.0069
     19 C          13.8809   35.9193   10.5533 C.3     1  UNL1        0.0004
     20 C          13.7090   34.8005    9.5316 C.3     1  UNL1        0.0000
     21 C          15.0033   34.5312    8.7798 C.3     1  UNL1        0.0000
     22 C          15.8630   32.9268    7.1032 C.3     1  UNL1        0.0000
     23 C          15.1062   33.0645    8.4067 C.3     1  UNL1        0.0000
@<TRIPOS>BOND
     1    22    23    1
     2    23    21    1
     3    21    20    1
     4    20    19    1
     5    19    18    1
     6    18    17    1
     7    17     1    1
     8     1     5   ar
     9     2     7    1
    10     2     5   ar
    11     6    10    1
    12    11    12   ar
    13    13    12    1
    14    14    15   ar
    15    16    10   ar
    16     3     4   ar
    17     7     6   am
    18     1     3   ar
    19     2     4   ar
    20     6     8    2
    21    10    11   ar
    22    12    14   ar
    23    15    16   ar
    24     7     9    1
@<TRIPOS>MOLECULE
MolPort-001-939-488 2057877 CSSS00121710954 LN01120534 MCULE-6418752900 PubChem-1722201 ZINC000002057877 ZINC02057877
 23 24 0 0 0
SMALL
GASTEIGER

@<TRIPOS>ATOM
      1 C           9.3607   41.9189    6.2309 C.ar    1  UNL1        0.1123
      2 C          11.6950   41.7172    6.7083 C.ar    1  UNL1        0.1880
      3 N          10.1029   41.6342    5.1387 N.ar    1  UNL1       -0.1440
      4 N          11.4032   41.5193    5.4038 N.ar    1  UNL1       -0.1256
      5 S          10.3179   42.0540    7.6132 S.2     1  UNL1       -0.0347
      6 C          14.0748   42.5720    6.9650 C.2     1  UNL1        0.2509
      7 N          13.0140   41.6532    7.2587 N.am    1  UNL1       -0.2592
      8 O          13.8860   43.5298    6.1661 O.2     1  UNL1       -0.2698
      9 H          13.2084   40.9214    7.8879 H       1  UNL1        0.1571
     10 C          15.3927   42.3964    7.5999 C.ar    1  UNL1        0.0534
     11 C          15.6008   41.3689    8.5325 C.ar    1  UNL1        0.0003
     12 C          16.8515   41.2029    9.1343 C.ar    1  UNL1       -0.0217
     13 C          17.0621   40.1118   10.1209 C.3     1  UNL1        0.0310
     14 C          17.9036   42.0631    8.8086 C.ar    1  UNL1       -0.0043
     15 C          17.7052   43.0891    7.8809 C.ar    1  UNL1       -0.0002
     16 C          16.4543   43.2550    7.2789 C.ar    1  UNL1        0.0045
     17 C           7.8857   42.1161    6.1888 C.3     1  UNL1        0.0545
     18 C           7.3549   42.3852    7.5862 C.3     1  UNL1        0.0069
     19 C           6.7510   41.1217    8.1798 C.3     1  UNL1        0.0004
     20 C           6.1566   40.2188    7.1043 C.3     1  UNL1        0.0000
     21 C           7.2435   39.5612    6.2681 C.3     1  UNL1        0.0000
     22 C           9.2225   38.1388    6.6978 C.3     1  UNL1        0.0000
     23 C           7.7362   38.2930    6.9388 C.3     1  UNL1        0.0000
@<TRIPOS>BOND
     1    22    23    1
     2    23    21    1
     3    21    20    1
     4    20    19    1
     5    19    18    1
     6    18    17    1
     7    17     1    1
     8     1     5   ar
     9     2     7    1
    10     2     5   ar
    11     6    10    1
    12    11    12   ar
    13    13    12    1
    14    14    15   ar
    15    16    10   ar
    16     3     4   ar
    17     7     6   am
    18     1     3   ar
    19     2     4   ar
    20     6     8    2
    21    10    11   ar
    22    12    14   ar
    23    15    16   ar
    24     7     9    1
@<TRIPOS>MOLECULE
MolPort-001-939-488 2057877 CSSS00121710954 LN01120534 MCULE-6418752900 PubChem-1722201 ZINC000002057877 ZINC02057877
 23 24 0 0 0
SMALL
GASTEIGER

@<TRIPOS>ATOM
      1 C          11.6117   38.2736    9.5911 C.ar    1  UNL1        0.1123
      2 C          12.8560   40.2454    9.0607 C.ar    1  UNL1        0.1880
      3 N          11.2902   39.3295   10.3700 N.ar    1  UNL1       -0.1440
      4 N          11.9811   40.4291   10.0740 N.ar    1  UNL1       -0.1256
      5 S          12.8115   38.6700    8.4736 S.2     1  UNL1       -0.0347
      6 C          13.5597   41.9210    7.2837 C.2     1  UNL1        0.2509
      7 N          13.7210   41.2628    8.5473 N.am    1  UNL1       -0.2592
      8 O          12.5981   41.6186    6.5254 O.2     1  UNL1       -0.2698
      9 H          14.4865   41.5318    9.1049 H       1  UNL1        0.1571
     10 C          14.5227   42.9561    6.8688 C.ar    1  UNL1        0.0534
     11 C          15.8125   42.9885    7.4202 C.ar    1  UNL1        0.0003
     12 C          16.7255   43.9708    7.0259 C.ar    1  UNL1       -0.0217
     13 C          18.0892   43.9970    7.6157 C.3     1  UNL1        0.0310
     14 C          16.3558   44.9284    6.0776 C.ar    1  UNL1       -0.0043
     15 C          15.0733   44.9037    5.5234 C.ar    1  UNL1       -0.0002
     16 C          14.1602   43.9211    5.9176 C.ar    1  UNL1        0.0045
     17 C          10.9926   36.9281    9.7409 C.3     1  UNL1        0.0545
     18 C          11.7946   36.0908   10.7222 C.3     1  UNL1        0.0069
     19 C          13.2831   36.3560   10.5575 C.3     1  UNL1        0.0004
     20 C          13.8528   37.1382   11.7360 C.3     1  UNL1        0.0000
     21 C          15.2992   37.5386   11.4898 C.3     1  UNL1        0.0000
     22 C          16.3741   39.3083   10.1345 C.3     1  UNL1        0.0000
     23 C          15.4058   39.0350   11.2653 C.3     1  UNL1        0.0000
@<TRIPOS>BOND
     1    22    23    1
     2    23    21    1
     3    21    20    1
     4    20    19    1
     5    19    18    1
     6    18    17    1
     7    17     1    1
     8     1     5   ar
     9     2     7    1
    10     2     5   ar
    11     6    10    1
    12    11    12   ar
    13    13    12    1
    14    14    15   ar
    15    16    10   ar
    16     3     4   ar
    17     7     6   am
    18     1     3   ar
    19     2     4   ar
    20     6     8    2
    21    10    11   ar
    22    12    14   ar
    23    15    16   ar
    24     7     9    1
@<TRIPOS>MOLECULE
MolPort-001-939-488 2057877 CSSS00121710954 LN01120534 MCULE-6418752900 PubChem-1722201 ZINC000002057877 ZINC02057877
 23 24 0 0 0
SMALL
GASTEIGER

@<TRIPOS>ATOM
      1 C           8.7610   43.3106    9.4216 C.ar    1  UNL1        0.1123
      2 C          10.6817   42.1130   10.1926 C.ar    1  UNL1        0.1880
      3 N           9.6372   44.0889   10.0933 N.ar    1  UNL1       -0.1440
      4 N          10.7087   43.4234   10.5214 N.ar    1  UNL1       -0.1256
      5 S           9.2909   41.7114    9.3363 S.2     1  UNL1       -0.0347
      6 C          12.3355   40.2723    9.6122 C.2     1  UNL1        0.2509
      7 N          11.7070   41.1747   10.5322 N.am    1  UNL1       -0.2592
      8 O          11.9969   40.2619    8.3971 O.2     1  UNL1       -0.2698
      9 H          12.0039   41.1465   11.4704 H       1  UNL1        0.1571
     10 C          13.3828   39.3520   10.0889 C.ar    1  UNL1        0.0534
     11 C          13.9905   38.4480    9.2046 C.ar    1  UNL1        0.0003
     12 C          14.9840   37.5753    9.6577 C.ar    1  UNL1       -0.0217
     13 C          15.6218   36.6214    8.7134 C.3     1  UNL1        0.0310
     14 C          15.3773   37.5995   10.9984 C.ar    1  UNL1       -0.0043
     15 C          14.7773   38.4966   11.8861 C.ar    1  UNL1       -0.0002
     16 C          13.7837   39.3695   11.4329 C.ar    1  UNL1        0.0045
     17 C           7.4778   43.8178    8.8628 C.3     1  UNL1        0.0545
     18 C           6.6048   42.6557    8.4219 C.3     1  UNL1        0.0069
     19 C           5.3955   42.5209    9.3343 C.3     1  UNL1        0.0004
     20 C           4.2820   43.4874    8.9454 C.3     1  UNL1        0.0000
     21 C           4.5245   44.0897    7.5701 C.3     1  UNL1        0.0000
     22 C           2.4605   45.4540    7.5171 C.3     1  UNL1        0.0000
     23 C           3.9733   45.5013    7.5032 C.3     1  UNL1        0.0000
@<TRIPOS>BOND
     1    22    23    1
     2    23    21    1
     3    21    20    1
     4    20    19    1
     5    19    18    1
     6    18    17    1
     7    17     1    1
     8     1     5   ar
     9     2     7    1
    10     2     5   ar
    11     6    10    1
    12    11    12   ar
    13    13    12    1
    14    14    15   ar
    15    16    10   ar
    16     3     4   ar
    17     7     6   am
    18     1     3   ar
    19     2     4   ar
    20     6     8    2
    21    10    11   ar
    22    12    14   ar
    23    15    16   ar
    24     7     9    1
