@<TRIPOS>MOLECULE
MolPort-001-629-776 2865914 CHEMBL1313544 CSSS00132429924 MCULE-8055462173 PubChem-2219067 ZINC000002865914 ZINC02865914
 27 29 0 0 0
SMALL
GASTEIGER

@<TRIPOS>ATOM
      1 C          11.9230   41.1229    8.2538 C.ar    1  UNL1        0.1987
      2 C          11.9192   40.9660    6.8804 C.ar    1  UNL1        0.0454
      3 C          13.1743   41.3790    6.4636 C.ar    1  UNL1        0.0410
      4 C          13.8435   41.7612    7.6157 C.ar    1  UNL1        0.1514
      5 O          13.0750   41.5909    8.6628 O.2     1  UNL1       -0.4487
      6 C          15.2374   42.2540    7.6717 C.ar    1  UNL1        0.1038
      7 C          15.6918   43.3604    6.9082 C.ar    1  UNL1        0.2928
      8 C          16.9956   43.8412    7.1066 C.ar    1  UNL1        0.0754
      9 C          17.8530   43.2287    8.0210 C.ar    1  UNL1        0.0063
     10 C          17.4181   42.1231    8.7491 C.ar    1  UNL1        0.0005
     11 C          16.1193   41.6431    8.5771 C.ar    1  UNL1        0.0092
     12 N          14.8804   43.9707    5.8942 N.pl3   1  UNL1        0.0810
     13 O          15.3657   44.1004    4.6132 O.co2   1  UNL1       -0.5760
     14 O          13.8613   44.6150    6.2188 O.2     1  UNL1        0.0415
     15 C          10.8041   40.8137    9.1493 C.2     1  UNL1        0.2864
     16 N          10.0597   41.8784    9.7532 N.am    1  UNL1       -0.2454
     17 O          10.5090   39.6103    9.3791 O.2     1  UNL1       -0.2664
     18 H          10.3305   42.8008    9.5409 H       1  UNL1        0.1582
     19 C           8.9523   41.7018   10.6417 C.ar    1  UNL1        0.2619
     20 N           6.9998   41.4614   11.3492 N.ar    1  UNL1       -0.1497
     21 N           7.8040   41.4471   12.3980 N.ar    1  UNL1       -0.0438
     22 N           9.0514   41.5997   11.9831 N.ar    1  UNL1       -0.0918
     23 N           7.6767   41.6146   10.2240 N.ar    1  UNL1       -0.1137
     24 C           5.5580   41.2993   11.4270 C.3     1  UNL1        0.1514
     25 C           4.9635   41.2456   10.0294 C.3     1  UNL1        0.0283
     26 C           3.0530   41.9409   11.4720 C.3     1  UNL1        0.0001
     27 C           3.5271   41.7363   10.0453 C.3     1  UNL1        0.0021
@<TRIPOS>UNITY_ATOM_ATTR
12 1
charge 1
13 1
charge -1
@<TRIPOS>BOND
     1    26    27    1
     2    27    25    1
     3    25    24    1
     4    24    20    1
     5    19    22   ar
     6    19    16    1
     7    15     1    1
     8     1     5   ar
     9     2     3   ar
    10     4     5   ar
    11     4     6    1
    12     7     8   ar
    13     7    12    1
    14     9    10   ar
    15    11     6   ar
    16    20    21   ar
    17    20    23   ar
    18    16    15   am
    19    12    13    1
    20    19    23   ar
    21    15    17    2
    22     1     2   ar
    23     3     4   ar
    24     6     7   ar
    25     8     9   ar
    26    10    11   ar
    27    21    22   ar
    28    12    14    2
    29    16    18    1
@<TRIPOS>MOLECULE
MolPort-001-629-776 2865914 CHEMBL1313544 CSSS00132429924 MCULE-8055462173 PubChem-2219067 ZINC000002865914 ZINC02865914
 27 29 0 0 0
SMALL
GASTEIGER

@<TRIPOS>ATOM
      1 C          11.1098   41.0463    7.0910 C.ar    1  UNL1        0.1987
      2 C          10.6964   39.8596    6.5152 C.ar    1  UNL1        0.0454
      3 C           9.3864   39.6895    6.9329 C.ar    1  UNL1        0.0410
      4 C           9.1054   40.7836    7.7362 C.ar    1  UNL1        0.1514
      5 O          10.1478   41.5742    7.8047 O.2     1  UNL1       -0.4487
      6 C           7.8075   41.0511    8.3940 C.ar    1  UNL1        0.1038
      7 C           6.5623   40.8683    7.7384 C.ar    1  UNL1        0.2928
      8 C           5.3735   41.0283    8.4674 C.ar    1  UNL1        0.0754
      9 C           5.4032   41.3903    9.8145 C.ar    1  UNL1        0.0063
     10 C           6.6247   41.6001   10.4515 C.ar    1  UNL1        0.0005
     11 C           7.8162   41.4281    9.7463 C.ar    1  UNL1        0.0092
     12 N           6.4754   40.5812    6.3351 N.pl3   1  UNL1        0.0810
     13 O           6.2692   39.2886    5.9110 O.co2   1  UNL1       -0.5760
     14 O           6.8453   41.4350    5.5027 O.2     1  UNL1        0.0415
     15 C          12.4367   41.6506    6.9372 C.2     1  UNL1        0.2864
     16 N          12.5958   42.8252    6.1326 N.am    1  UNL1       -0.2454
     17 O          13.4264   41.1276    7.5163 O.2     1  UNL1       -0.2664
     18 H          11.7912   43.1945    5.7019 H       1  UNL1        0.1582
     19 C          13.8362   43.5017    5.9078 C.ar    1  UNL1        0.2619
     20 N          15.8788   43.9474    5.9166 N.ar    1  UNL1       -0.1497
     21 N          15.2636   44.9283    5.2790 N.ar    1  UNL1       -0.0438
     22 N          13.9645   44.6767    5.2578 N.ar    1  UNL1       -0.0918
     23 N          15.0232   43.0264    6.3258 N.ar    1  UNL1       -0.1137
     24 C          17.3168   43.8810    6.1138 C.3     1  UNL1        0.1514
     25 C          17.6290   43.5518    7.5643 C.3     1  UNL1        0.0283
     26 C          17.5184   41.5617    9.0615 C.3     1  UNL1        0.0001
     27 C          16.7662   42.3984    8.0435 C.3     1  UNL1        0.0021
@<TRIPOS>UNITY_ATOM_ATTR
12 1
charge 1
13 1
charge -1
@<TRIPOS>BOND
     1    26    27    1
     2    27    25    1
     3    25    24    1
     4    24    20    1
     5    19    22   ar
     6    19    16    1
     7    15     1    1
     8     1     5   ar
     9     2     3   ar
    10     4     5   ar
    11     4     6    1
    12     7     8   ar
    13     7    12    1
    14     9    10   ar
    15    11     6   ar
    16    20    21   ar
    17    20    23   ar
    18    16    15   am
    19    12    13    1
    20    19    23   ar
    21    15    17    2
    22     1     2   ar
    23     3     4   ar
    24     6     7   ar
    25     8     9   ar
    26    10    11   ar
    27    21    22   ar
    28    12    14    2
    29    16    18    1
@<TRIPOS>MOLECULE
MolPort-001-629-776 2865914 CHEMBL1313544 CSSS00132429924 MCULE-8055462173 PubChem-2219067 ZINC000002865914 ZINC02865914
 27 29 0 0 0
SMALL
GASTEIGER

@<TRIPOS>ATOM
      1 C          10.3320   41.8243    7.2286 C.ar    1  UNL1        0.1987
      2 C          10.5515   41.3412    5.9523 C.ar    1  UNL1        0.0454
      3 C          11.9287   41.3221    5.8024 C.ar    1  UNL1        0.0410
      4 C          12.4413   41.8010    6.9979 C.ar    1  UNL1        0.1514
      5 O          11.4671   42.0844    7.8265 O.2     1  UNL1       -0.4487
      6 C          13.8791   41.9392    7.3179 C.ar    1  UNL1        0.1038
      7 C          14.7139   42.9058    6.6996 C.ar    1  UNL1        0.2928
      8 C          16.0373   43.0535    7.1435 C.ar    1  UNL1        0.0754
      9 C          16.5454   42.2454    8.1611 C.ar    1  UNL1        0.0063
     10 C          15.7358   41.2749    8.7480 C.ar    1  UNL1        0.0005
     11 C          14.4126   41.1267    8.3309 C.ar    1  UNL1        0.0092
     12 N          14.2671   43.7011    5.5919 N.pl3   1  UNL1        0.0810
     13 O          15.0906   43.8884    4.5056 O.co2   1  UNL1       -0.5760
     14 O          13.2625   44.4318    5.7174 O.2     1  UNL1        0.0415
     15 C           9.0189   42.0253    7.8489 C.2     1  UNL1        0.2864
     16 N           8.2482   43.1886    7.5247 N.am    1  UNL1       -0.2454
     17 O           8.5814   41.1694    8.6641 O.2     1  UNL1       -0.2664
     18 H           8.6349   43.8264    6.8821 H       1  UNL1        0.1582
     19 C           6.9588   43.4931    8.0646 C.ar    1  UNL1        0.2619
     20 N           5.0163   43.2633    8.8025 N.ar    1  UNL1       -0.1497
     21 N           5.3006   44.5537    8.8350 N.ar    1  UNL1       -0.0438
     22 N           6.5267   44.7338    8.3707 N.ar    1  UNL1       -0.0918
     23 N           6.0295   42.5575    8.3302 N.ar    1  UNL1       -0.1137
     24 C           3.7585   42.6955    9.2573 C.3     1  UNL1        0.1514
     25 C           3.8317   41.1778    9.2290 C.3     1  UNL1        0.0283
     26 C           5.0917   40.8823   11.3596 C.3     1  UNL1        0.0001
     27 C           3.7826   40.6185   10.6394 C.3     1  UNL1        0.0021
@<TRIPOS>UNITY_ATOM_ATTR
12 1
charge 1
13 1
charge -1
@<TRIPOS>BOND
     1    26    27    1
     2    27    25    1
     3    25    24    1
     4    24    20    1
     5    19    22   ar
     6    19    16    1
     7    15     1    1
     8     1     5   ar
     9     2     3   ar
    10     4     5   ar
    11     4     6    1
    12     7     8   ar
    13     7    12    1
    14     9    10   ar
    15    11     6   ar
    16    20    21   ar
    17    20    23   ar
    18    16    15   am
    19    12    13    1
    20    19    23   ar
    21    15    17    2
    22     1     2   ar
    23     3     4   ar
    24     6     7   ar
    25     8     9   ar
    26    10    11   ar
    27    21    22   ar
    28    12    14    2
    29    16    18    1
@<TRIPOS>MOLECULE
MolPort-001-629-776 2865914 CHEMBL1313544 CSSS00132429924 MCULE-8055462173 PubChem-2219067 ZINC000002865914 ZINC02865914
 27 29 0 0 0
SMALL
GASTEIGER

@<TRIPOS>ATOM
      1 C          11.3808   41.9722    7.4364 C.ar    1  UNL1        0.1987
      2 C          11.6325   41.5282    6.1517 C.ar    1  UNL1        0.0454
      3 C          12.9968   41.6888    5.9721 C.ar    1  UNL1        0.0410
      4 C          13.4696   42.2240    7.1601 C.ar    1  UNL1        0.1514
      5 O          12.4856   42.3743    8.0118 O.2     1  UNL1       -0.4487
      6 C          14.8842   42.5460    7.4502 C.ar    1  UNL1        0.1038
      7 C          15.5004   43.7510    7.0238 C.ar    1  UNL1        0.2928
      8 C          16.8099   44.0364    7.4409 C.ar    1  UNL1        0.0754
      9 C          17.5171   43.1401    8.2427 C.ar    1  UNL1        0.0063
     10 C          16.9240   41.9423    8.6369 C.ar    1  UNL1        0.0005
     11 C          15.6168   41.6509    8.2457 C.ar    1  UNL1        0.0092
     12 N          14.8489   44.6643    6.1290 N.pl3   1  UNL1        0.0810
     13 O          13.6395   44.3276    5.5659 O.co2   1  UNL1       -0.5760
     14 O          15.4842   45.6293    5.6558 O.2     1  UNL1        0.0415
     15 C          10.0669   41.9977    8.0864 C.2     1  UNL1        0.2864
     16 N           8.8797   41.8423    7.2997 N.am    1  UNL1       -0.2454
     17 O           9.9963   42.1574    9.3345 O.2     1  UNL1       -0.2664
     18 H           8.9894   41.7203    6.3290 H       1  UNL1        0.1582
     19 C           7.5466   41.8511    7.8190 C.ar    1  UNL1        0.2619
     20 N           5.7433   42.5251    8.6344 N.ar    1  UNL1       -0.1497
     21 N           5.6311   41.2206    8.4529 N.ar    1  UNL1       -0.0438
     22 N           6.7606   40.7613    7.9382 N.ar    1  UNL1       -0.0918
     23 N           6.9276   42.9663    8.2465 N.ar    1  UNL1       -0.1137
     24 C           4.6849   43.3666    9.1659 C.3     1  UNL1        0.1514
     25 C           3.6141   42.5076    9.8179 C.3     1  UNL1        0.0283
     26 C           3.8837   40.6853   11.4975 C.3     1  UNL1        0.0001
     27 C           3.9980   42.1777   11.2490 C.3     1  UNL1        0.0021
@<TRIPOS>UNITY_ATOM_ATTR
12 1
charge 1
13 1
charge -1
@<TRIPOS>BOND
     1    26    27    1
     2    27    25    1
     3    25    24    1
     4    24    20    1
     5    19    22   ar
     6    19    16    1
     7    15     1    1
     8     1     5   ar
     9     2     3   ar
    10     4     5   ar
    11     4     6    1
    12     7     8   ar
    13     7    12    1
    14     9    10   ar
    15    11     6   ar
    16    20    21   ar
    17    20    23   ar
    18    16    15   am
    19    12    13    1
    20    19    23   ar
    21    15    17    2
    22     1     2   ar
    23     3     4   ar
    24     6     7   ar
    25     8     9   ar
    26    10    11   ar
    27    21    22   ar
    28    12    14    2
    29    16    18    1
@<TRIPOS>MOLECULE
MolPort-001-629-776 2865914 CHEMBL1313544 CSSS00132429924 MCULE-8055462173 PubChem-2219067 ZINC000002865914 ZINC02865914
 27 29 0 0 0
SMALL
GASTEIGER

@<TRIPOS>ATOM
      1 C          12.0692   41.8090    7.2990 C.ar    1  UNL1        0.1987
      2 C          12.2445   41.8077    5.9279 C.ar    1  UNL1        0.0454
      3 C          13.5680   42.1662    5.7299 C.ar    1  UNL1        0.0410
      4 C          14.0949   42.3639    6.9967 C.ar    1  UNL1        0.1514
      5 O          13.1808   42.1375    7.9073 O.2     1  UNL1       -0.4487
      6 C          15.4956   42.7379    7.2917 C.ar    1  UNL1        0.1038
      7 C          16.1062   43.9050    6.7638 C.ar    1  UNL1        0.2928
      8 C          17.3988   44.2534    7.1860 C.ar    1  UNL1        0.0754
      9 C          18.0956   43.4539    8.0925 C.ar    1  UNL1        0.0063
     10 C          17.5089   42.2911    8.5881 C.ar    1  UNL1        0.0005
     11 C          16.2180   41.9394    8.1925 C.ar    1  UNL1        0.0092
     12 N          15.4676   44.7131    5.7647 N.pl3   1  UNL1        0.0810
     13 O          15.1544   44.1695    4.5401 O.co2   1  UNL1       -0.5760
     14 O          15.4361   45.9542    5.8970 O.2     1  UNL1        0.0415
     15 C          10.8209   41.4892    7.9983 C.2     1  UNL1        0.2864
     16 N           9.9071   42.5381    8.3406 N.am    1  UNL1       -0.2454
     17 O          10.5651   40.2906    8.2921 O.2     1  UNL1       -0.2664
     18 H          10.1538   43.4572    8.0883 H       1  UNL1        0.1582
     19 C           8.6629   42.3501    9.0214 C.ar    1  UNL1        0.2619
     20 N           7.2665   41.8236   10.4855 N.ar    1  UNL1       -0.1497
     21 N           6.5978   42.3468    9.4724 N.ar    1  UNL1       -0.0438
     22 N           7.4556   42.6896    8.5247 N.ar    1  UNL1       -0.0918
     23 N           8.5671   41.8090   10.2492 N.ar    1  UNL1       -0.1137
     24 C           6.6473   41.3530   11.7128 C.3     1  UNL1        0.1514
     25 C           7.6797   40.6553   12.5828 C.3     1  UNL1        0.0283
     26 C           9.2591   41.0369   14.4735 C.3     1  UNL1        0.0001
     27 C           8.5499   41.6757   13.2941 C.3     1  UNL1        0.0021
@<TRIPOS>UNITY_ATOM_ATTR
12 1
charge 1
13 1
charge -1
@<TRIPOS>BOND
     1    26    27    1
     2    27    25    1
     3    25    24    1
     4    24    20    1
     5    19    22   ar
     6    19    16    1
     7    15     1    1
     8     1     5   ar
     9     2     3   ar
    10     4     5   ar
    11     4     6    1
    12     7     8   ar
    13     7    12    1
    14     9    10   ar
    15    11     6   ar
    16    20    21   ar
    17    20    23   ar
    18    16    15   am
    19    12    13    1
    20    19    23   ar
    21    15    17    2
    22     1     2   ar
    23     3     4   ar
    24     6     7   ar
    25     8     9   ar
    26    10    11   ar
    27    21    22   ar
    28    12    14    2
    29    16    18    1
@<TRIPOS>MOLECULE
MolPort-001-629-776 2865914 CHEMBL1313544 CSSS00132429924 MCULE-8055462173 PubChem-2219067 ZINC000002865914 ZINC02865914
 27 29 0 0 0
SMALL
GASTEIGER

@<TRIPOS>ATOM
      1 C           9.2119   41.6539    9.6339 C.ar    1  UNL1        0.1987
      2 C           9.3160   41.6546   11.0122 C.ar    1  UNL1        0.0454
      3 C           8.0123   41.7268   11.4755 C.ar    1  UNL1        0.0410
      4 C           7.2151   41.7704   10.3424 C.ar    1  UNL1        0.1514
      5 O           7.9578   41.7190    9.2645 O.2     1  UNL1       -0.4487
      6 C           5.7367   41.8270   10.3383 C.ar    1  UNL1        0.1038
      7 C           5.0005   42.5980    9.4018 C.ar    1  UNL1        0.2928
      8 C           3.5999   42.5051    9.3873 C.ar    1  UNL1        0.0754
      9 C           2.9273   41.6887   10.2970 C.ar    1  UNL1        0.0063
     10 C           3.6476   40.9545   11.2373 C.ar    1  UNL1        0.0005
     11 C           5.0411   41.0217   11.2540 C.ar    1  UNL1        0.0092
     12 N           5.6382   43.5178    8.5038 N.pl3   1  UNL1        0.0810
     13 O           5.5160   44.8729    8.7090 O.co2   1  UNL1       -0.5760
     14 O           6.0720   43.1131    7.4052 O.2     1  UNL1        0.0415
     15 C          10.3361   41.5889    8.6950 C.2     1  UNL1        0.2864
     16 N          11.5330   42.3286    8.9644 N.am    1  UNL1       -0.2454
     17 O          10.2363   40.8808    7.6572 O.2     1  UNL1       -0.2664
     18 H          11.5603   42.8661    9.7889 H       1  UNL1        0.1582
     19 C          12.6917   42.3449    8.1253 C.ar    1  UNL1        0.2619
     20 N          14.0745   42.9275    6.6696 N.ar    1  UNL1       -0.1497
     21 N          14.5362   41.8247    7.2334 N.ar    1  UNL1       -0.0438
     22 N          13.6800   41.4274    8.1611 N.ar    1  UNL1       -0.0918
     23 N          12.9207   43.2944    7.2005 N.ar    1  UNL1       -0.1137
     24 C          14.7666   43.6559    5.6200 C.3     1  UNL1        0.1514
     25 C          15.6400   44.7409    6.2277 C.3     1  UNL1        0.0283
     26 C          17.4528   43.9384    7.7391 C.3     1  UNL1        0.0001
     27 C          17.0832   44.2770    6.3071 C.3     1  UNL1        0.0021
@<TRIPOS>UNITY_ATOM_ATTR
12 1
charge 1
13 1
charge -1
@<TRIPOS>BOND
     1    26    27    1
     2    27    25    1
     3    25    24    1
     4    24    20    1
     5    19    22   ar
     6    19    16    1
     7    15     1    1
     8     1     5   ar
     9     2     3   ar
    10     4     5   ar
    11     4     6    1
    12     7     8   ar
    13     7    12    1
    14     9    10   ar
    15    11     6   ar
    16    20    21   ar
    17    20    23   ar
    18    16    15   am
    19    12    13    1
    20    19    23   ar
    21    15    17    2
    22     1     2   ar
    23     3     4   ar
    24     6     7   ar
    25     8     9   ar
    26    10    11   ar
    27    21    22   ar
    28    12    14    2
    29    16    18    1
@<TRIPOS>MOLECULE
MolPort-001-629-776 2865914 CHEMBL1313544 CSSS00132429924 MCULE-8055462173 PubChem-2219067 ZINC000002865914 ZINC02865914
 27 29 0 0 0
SMALL
GASTEIGER

@<TRIPOS>ATOM
      1 C           9.2471   41.8317    9.3859 C.ar    1  UNL1        0.1987
      2 C           8.7467   41.4987   10.6307 C.ar    1  UNL1        0.0454
      3 C           7.4449   41.9726   10.6382 C.ar    1  UNL1        0.0410
      4 C           7.2552   42.5631    9.3986 C.ar    1  UNL1        0.1514
      5 O           8.3426   42.4569    8.6757 O.2     1  UNL1       -0.4487
      6 C           5.9987   43.1904    8.9331 C.ar    1  UNL1        0.1038
      7 C           4.7250   42.8287    9.4434 C.ar    1  UNL1        0.2928
      8 C           3.5930   43.5530    9.0381 C.ar    1  UNL1        0.0754
      9 C           3.7033   44.6004    8.1230 C.ar    1  UNL1        0.0063
     10 C           4.9494   44.9366    7.5977 C.ar    1  UNL1        0.0005
     11 C           6.0873   44.2385    8.0033 C.ar    1  UNL1        0.0092
     12 N           4.5461   41.7057   10.3185 N.pl3   1  UNL1        0.0810
     13 O           4.6286   41.8779   11.6811 O.co2   1  UNL1       -0.5760
     14 O           4.5816   40.5464    9.8561 O.2     1  UNL1        0.0415
     15 C          10.5999   41.5352    8.9048 C.2     1  UNL1        0.2864
     16 N          11.4422   42.5995    8.4462 N.am    1  UNL1       -0.2454
     17 O          11.0080   40.3429    8.8994 O.2     1  UNL1       -0.2664
     18 H          11.0759   43.5130    8.4711 H       1  UNL1        0.1582
     19 C          12.7756   42.4344    7.9546 C.ar    1  UNL1        0.2619
     20 N          14.5589   42.7687    6.9158 N.ar    1  UNL1       -0.1497
     21 N          14.7113   41.6566    7.6137 N.ar    1  UNL1       -0.0438
     22 N          13.5955   41.4149    8.2832 N.ar    1  UNL1       -0.0918
     23 N          13.3604   43.2949    7.1019 N.ar    1  UNL1       -0.1137
     24 C          15.5917   43.3500    6.0754 C.3     1  UNL1        0.1514
     25 C          16.3036   44.4663    6.8216 C.3     1  UNL1        0.0283
     26 C          17.5791   43.5203    8.7433 C.3     1  UNL1        0.0001
     27 C          17.6638   43.9970    7.3054 C.3     1  UNL1        0.0021
@<TRIPOS>UNITY_ATOM_ATTR
12 1
charge 1
13 1
charge -1
@<TRIPOS>BOND
     1    26    27    1
     2    27    25    1
     3    25    24    1
     4    24    20    1
     5    19    22   ar
     6    19    16    1
     7    15     1    1
     8     1     5   ar
     9     2     3   ar
    10     4     5   ar
    11     4     6    1
    12     7     8   ar
    13     7    12    1
    14     9    10   ar
    15    11     6   ar
    16    20    21   ar
    17    20    23   ar
    18    16    15   am
    19    12    13    1
    20    19    23   ar
    21    15    17    2
    22     1     2   ar
    23     3     4   ar
    24     6     7   ar
    25     8     9   ar
    26    10    11   ar
    27    21    22   ar
    28    12    14    2
    29    16    18    1
@<TRIPOS>MOLECULE
MolPort-001-629-776 2865914 CHEMBL1313544 CSSS00132429924 MCULE-8055462173 PubChem-2219067 ZINC000002865914 ZINC02865914
 27 29 0 0 0
SMALL
GASTEIGER

@<TRIPOS>ATOM
      1 C          13.1876   40.2289   10.3448 C.ar    1  UNL1        0.1987
      2 C          12.9955   39.5971   11.5592 C.ar    1  UNL1        0.0454
      3 C          14.1471   38.8562   11.7700 C.ar    1  UNL1        0.0410
      4 C          14.9493   39.0898   10.6640 C.ar    1  UNL1        0.1514
      5 O          14.3533   39.9146    9.8390 O.2     1  UNL1       -0.4487
      6 C          16.3010   38.5265   10.4533 C.ar    1  UNL1        0.1038
      7 C          16.5259   37.3092    9.7597 C.ar    1  UNL1        0.2928
      8 C          17.8436   36.9029    9.4972 C.ar    1  UNL1        0.0754
      9 C          18.9279   37.6650    9.9331 C.ar    1  UNL1        0.0063
     10 C          18.7086   38.8451   10.6411 C.ar    1  UNL1        0.0005
     11 C          17.4051   39.2725   10.8953 C.ar    1  UNL1        0.0092
     12 N          15.4488   36.4463    9.3668 N.pl3   1  UNL1        0.0810
     13 O          14.8946   36.5681    8.1134 O.co2   1  UNL1       -0.5760
     14 O          14.8422   35.7781   10.2297 O.2     1  UNL1        0.0415
     15 C          12.2329   41.1313    9.6940 C.2     1  UNL1        0.2864
     16 N          11.0404   41.5247   10.3837 N.am    1  UNL1       -0.2454
     17 O          12.4724   41.5519    8.5304 O.2     1  UNL1       -0.2664
     18 H          10.9005   41.1684   11.2908 H       1  UNL1        0.1582
     19 C          10.0376   42.3964    9.8533 C.ar    1  UNL1        0.2619
     20 N           8.4454   43.1166    8.7057 N.ar    1  UNL1       -0.1497
     21 N           8.8251   44.0936    9.5109 N.ar    1  UNL1       -0.0438
     22 N           9.8363   43.6693   10.2518 N.ar    1  UNL1       -0.0918
     23 N           9.1754   42.0296    8.8881 N.ar    1  UNL1       -0.1137
     24 C           7.3451   43.2206    7.7625 C.3     1  UNL1        0.1514
     25 C           6.6403   41.8804    7.6343 C.3     1  UNL1        0.0283
     26 C           6.6549   39.7719    6.3043 C.3     1  UNL1        0.0001
     27 C           6.9119   41.2669    6.2726 C.3     1  UNL1        0.0021
@<TRIPOS>UNITY_ATOM_ATTR
12 1
charge 1
13 1
charge -1
@<TRIPOS>BOND
     1    26    27    1
     2    27    25    1
     3    25    24    1
     4    24    20    1
     5    19    22   ar
     6    19    16    1
     7    15     1    1
     8     1     5   ar
     9     2     3   ar
    10     4     5   ar
    11     4     6    1
    12     7     8   ar
    13     7    12    1
    14     9    10   ar
    15    11     6   ar
    16    20    21   ar
    17    20    23   ar
    18    16    15   am
    19    12    13    1
    20    19    23   ar
    21    15    17    2
    22     1     2   ar
    23     3     4   ar
    24     6     7   ar
    25     8     9   ar
    26    10    11   ar
    27    21    22   ar
    28    12    14    2
    29    16    18    1
@<TRIPOS>MOLECULE
MolPort-001-629-776 2865914 CHEMBL1313544 CSSS00132429924 MCULE-8055462173 PubChem-2219067 ZINC000002865914 ZINC02865914
 27 29 0 0 0
SMALL
GASTEIGER

@<TRIPOS>ATOM
      1 C          11.6192   41.8914    7.6408 C.ar    1  UNL1        0.1987
      2 C          12.1436   42.1647    6.3914 C.ar    1  UNL1        0.0454
      3 C          13.5073   41.9536    6.5151 C.ar    1  UNL1        0.0410
      4 C          13.7084   41.5737    7.8329 C.ar    1  UNL1        0.1514
      5 O          12.5662   41.5402    8.4734 O.2     1  UNL1       -0.4487
      6 C          15.0139   41.2168    8.4305 C.ar    1  UNL1        0.1038
      7 C          16.1689   42.0297    8.2937 C.ar    1  UNL1        0.2928
      8 C          17.3376   41.6834    8.9897 C.ar    1  UNL1        0.0754
      9 C          17.3832   40.5398    9.7876 C.ar    1  UNL1        0.0063
     10 C          16.2589   39.7239    9.8984 C.ar    1  UNL1        0.0005
     11 C          15.0837   40.0631    9.2273 C.ar    1  UNL1        0.0092
     12 N          16.2008   43.1664    7.4184 N.pl3   1  UNL1        0.0810
     13 O          16.3092   44.4336    7.9434 O.co2   1  UNL1       -0.5760
     14 O          15.8680   43.0381    6.2219 O.2     1  UNL1        0.0415
     15 C          10.2018   41.9755    8.0065 C.2     1  UNL1        0.2864
     16 N           9.8142   41.8815    9.3824 N.am    1  UNL1       -0.2454
     17 O           9.3371   42.1293    7.1027 O.2     1  UNL1       -0.2664
     18 H          10.5283   41.7619   10.0495 H       1  UNL1        0.1582
     19 C           8.4672   41.9483    9.8599 C.ar    1  UNL1        0.2619
     20 N           6.4004   42.2573    9.9197 N.ar    1  UNL1       -0.1497
     21 N           6.7701   41.8298   11.1145 N.ar    1  UNL1       -0.0438
     22 N           8.0778   41.6262   11.1106 N.ar    1  UNL1       -0.0918
     23 N           7.4319   42.3431    9.0972 N.ar    1  UNL1       -0.1137
     24 C           5.0281   42.5642    9.5540 C.3     1  UNL1        0.1514
     25 C           4.2505   41.2790    9.3233 C.3     1  UNL1        0.0283
     26 C           3.8277   40.0550   11.4535 C.3     1  UNL1        0.0001
     27 C           3.2637   41.0467   10.4532 C.3     1  UNL1        0.0021
@<TRIPOS>UNITY_ATOM_ATTR
12 1
charge 1
13 1
charge -1
@<TRIPOS>BOND
     1    26    27    1
     2    27    25    1
     3    25    24    1
     4    24    20    1
     5    19    22   ar
     6    19    16    1
     7    15     1    1
     8     1     5   ar
     9     2     3   ar
    10     4     5   ar
    11     4     6    1
    12     7     8   ar
    13     7    12    1
    14     9    10   ar
    15    11     6   ar
    16    20    21   ar
    17    20    23   ar
    18    16    15   am
    19    12    13    1
    20    19    23   ar
    21    15    17    2
    22     1     2   ar
    23     3     4   ar
    24     6     7   ar
    25     8     9   ar
    26    10    11   ar
    27    21    22   ar
    28    12    14    2
    29    16    18    1
@<TRIPOS>MOLECULE
MolPort-001-629-776 2865914 CHEMBL1313544 CSSS00132429924 MCULE-8055462173 PubChem-2219067 ZINC000002865914 ZINC02865914
 27 29 0 0 0
SMALL
GASTEIGER

@<TRIPOS>ATOM
      1 C          10.2647   41.9980   10.0956 C.ar    1  UNL1        0.1987
      2 C           9.9882   43.3404   10.2759 C.ar    1  UNL1        0.0454
      3 C           8.6057   43.4262   10.3058 C.ar    1  UNL1        0.0410
      4 C           8.1471   42.1293   10.1354 C.ar    1  UNL1        0.1514
      5 O           9.1577   41.3037   10.0199 O.2     1  UNL1       -0.4487
      6 C           6.7257   41.7191   10.1238 C.ar    1  UNL1        0.1038
      7 C           5.9700   41.6026    8.9284 C.ar    1  UNL1        0.2928
      8 C           4.6636   41.0929    8.9900 C.ar    1  UNL1        0.0754
      9 C           4.0944   40.7282   10.2104 C.ar    1  UNL1        0.0063
     10 C           4.8246   40.8710   11.3887 C.ar    1  UNL1        0.0005
     11 C           6.1308   41.3594   11.3434 C.ar    1  UNL1        0.0092
     12 N           6.4770   42.0444    7.6608 N.pl3   1  UNL1        0.0810
     13 O           6.3518   43.3647    7.2944 O.co2   1  UNL1       -0.5760
     14 O           6.7854   41.2056    6.7889 O.2     1  UNL1        0.0415
     15 C          11.6043   41.4099   10.0004 C.2     1  UNL1        0.2864
     16 N          12.0363   40.4591   10.9812 N.am    1  UNL1       -0.2454
     17 O          12.3639   41.7491    9.0538 O.2     1  UNL1       -0.2664
     18 H          11.4048   40.2279   11.7003 H       1  UNL1        0.1582
     19 C          13.3164   39.8204   10.9940 C.ar    1  UNL1        0.2619
     20 N          15.2515   39.2519   10.4435 N.ar    1  UNL1       -0.1497
     21 N          14.9581   38.6176   11.5654 N.ar    1  UNL1       -0.0438
     22 N          13.7346   38.9552   11.9407 N.ar    1  UNL1       -0.0918
     23 N          14.2522   40.0223   10.0490 N.ar    1  UNL1       -0.1137
     24 C          16.5240   39.1356    9.7519 C.3     1  UNL1        0.1514
     25 C          17.2850   40.4484    9.8369 C.3     1  UNL1        0.0283
     26 C          17.7834   42.2460    8.1832 C.3     1  UNL1        0.0001
     27 C          16.6860   41.4705    8.8878 C.3     1  UNL1        0.0021
@<TRIPOS>UNITY_ATOM_ATTR
12 1
charge 1
13 1
charge -1
@<TRIPOS>BOND
     1    26    27    1
     2    27    25    1
     3    25    24    1
     4    24    20    1
     5    19    22   ar
     6    19    16    1
     7    15     1    1
     8     1     5   ar
     9     2     3   ar
    10     4     5   ar
    11     4     6    1
    12     7     8   ar
    13     7    12    1
    14     9    10   ar
    15    11     6   ar
    16    20    21   ar
    17    20    23   ar
    18    16    15   am
    19    12    13    1
    20    19    23   ar
    21    15    17    2
    22     1     2   ar
    23     3     4   ar
    24     6     7   ar
    25     8     9   ar
    26    10    11   ar
    27    21    22   ar
    28    12    14    2
    29    16    18    1
