@<TRIPOS>MOLECULE
MolPort-046-676-541 MCULE-3604227003 PubChem-137944645
 25 26 0 0 0
SMALL
GASTEIGER

@<TRIPOS>ATOM
      1 C          14.0471   41.7386    7.8369 C.ar    1  UNL1        0.1404
      2 C          14.7045   40.8947    8.7460 C.ar    1  UNL1        0.0370
      3 C          13.9949   40.2971    9.7899 C.ar    1  UNL1        0.0044
      4 C          12.6263   40.5391    9.9312 C.ar    1  UNL1        0.0150
      5 C          11.9579   41.3809    9.0297 C.ar    1  UNL1        0.0562
      6 C          12.6766   41.9751    7.9865 C.ar    1  UNL1        0.0517
      7 C           9.9459   42.7994    9.7476 C.2     1  UNL1        0.4057
      8 O          10.6521   43.7201   10.2428 O.2     1  UNL1       -0.2261
      9 N          10.5539   41.6521    9.1411 N.am    1  UNL1       -0.2498
     10 H           9.9437   40.9793    8.7611 H       1  UNL1        0.1582
     11 O           8.5522   42.8872    9.7756 O.3     1  UNL1       -0.4295
     12 C           7.7223   42.2142    8.8350 C.3     1  UNL1        0.2367
     13 C           6.4283   42.9366    8.6698 C.ar    1  UNL1        0.0213
     14 C           5.3087   42.5511    9.4160 C.ar    1  UNL1       -0.0007
     15 C           4.0998   43.2384    9.2702 C.ar    1  UNL1       -0.0002
     16 C           4.0097   44.3133    8.3804 C.ar    1  UNL1       -0.0000
     17 C           5.1285   44.7015    7.6367 C.ar    1  UNL1       -0.0002
     18 C           6.3374   44.0142    7.7823 C.ar    1  UNL1       -0.0007
     19 O          14.7286   42.3523    6.7820 O.3     1  UNL1       -0.4678
     20 C          16.8622   43.4616    6.7954 C.3     1  UNL1        0.0596
     21 C          15.3581   43.6214    6.9082 C.3     1  UNL1        0.2632
     22 C          14.8497   44.5507    5.8577 C.2     1  UNL1        0.3544
     23 O          13.6025   44.3294    5.2898 O.3     1  UNL1       -0.4777
     24 O          15.5460   45.5289    5.4768 O.2     1  UNL1       -0.2463
     25 H          13.0821   43.6026    5.5708 H       1  UNL1        0.2952
@<TRIPOS>BOND
     1    21    20    1
     2    21    19    1
     3    21    22    1
     4     1    19    1
     5     2     3   ar
     6     4     5   ar
     7     5     9    1
     8     7    11    1
     9    12    11    1
    10    12    13    1
    11    14    15   ar
    12    16    17   ar
    13    18    13   ar
    14     6     1   ar
    15    22    23    1
    16     9     7   am
    17     1     2   ar
    18     3     4   ar
    19     5     6   ar
    20     7     8    2
    21    13    14   ar
    22    15    16   ar
    23    17    18   ar
    24    22    24    2
    25    23    25    1
    26     9    10    1
@<TRIPOS>MOLECULE
MolPort-046-676-541 MCULE-3604227003 PubChem-137944645
 25 26 0 0 0
SMALL
GASTEIGER

@<TRIPOS>ATOM
      1 C          12.9826   39.6968    9.7770 C.ar    1  UNL1        0.1404
      2 C          13.0675   39.4972    8.3900 C.ar    1  UNL1        0.0370
      3 C          11.9635   39.7539    7.5741 C.ar    1  UNL1        0.0044
      4 C          10.7701   40.2107    8.1385 C.ar    1  UNL1        0.0150
      5 C          10.6723   40.4136    9.5233 C.ar    1  UNL1        0.0562
      6 C          11.7834   40.1543   10.3332 C.ar    1  UNL1        0.0517
      7 C           9.2137   42.2011   10.6425 C.2     1  UNL1        0.4057
      8 O          10.0899   43.1046   10.5566 O.2     1  UNL1       -0.2261
      9 N           9.4651   40.8831   10.1392 N.am    1  UNL1       -0.2498
     10 H           8.7321   40.2314   10.2252 H       1  UNL1        0.1582
     11 O           7.9743   42.4741   11.2260 O.3     1  UNL1       -0.4295
     12 C           7.1017   41.4486   11.6879 C.3     1  UNL1        0.2367
     13 C           5.8326   41.4511   10.9048 C.ar    1  UNL1        0.0213
     14 C           5.7006   42.2796    9.7845 C.ar    1  UNL1       -0.0007
     15 C           4.5151   42.2705    9.0431 C.ar    1  UNL1       -0.0002
     16 C           3.4616   41.4314    9.4193 C.ar    1  UNL1       -0.0000
     17 C           3.5937   40.6008   10.5365 C.ar    1  UNL1       -0.0002
     18 C           4.7790   40.6098   11.2781 C.ar    1  UNL1       -0.0007
     19 O          14.0688   39.4487   10.6211 O.3     1  UNL1       -0.4678
     20 C          16.4578   39.5967   10.3891 C.3     1  UNL1        0.0596
     21 C          15.2241   38.7353   10.1977 C.3     1  UNL1        0.2632
     22 C          15.3492   37.4629   10.9666 C.2     1  UNL1        0.3544
     23 O          14.8918   36.2763   10.4102 O.3     1  UNL1       -0.4777
     24 O          15.8589   37.4584   12.1185 O.2     1  UNL1       -0.2463
     25 H          14.5121   36.2762    9.5536 H       1  UNL1        0.2952
@<TRIPOS>BOND
     1    21    20    1
     2    21    19    1
     3    21    22    1
     4     1    19    1
     5     2     3   ar
     6     4     5   ar
     7     5     9    1
     8     7    11    1
     9    12    11    1
    10    12    13    1
    11    14    15   ar
    12    16    17   ar
    13    18    13   ar
    14     6     1   ar
    15    22    23    1
    16     9     7   am
    17     1     2   ar
    18     3     4   ar
    19     5     6   ar
    20     7     8    2
    21    13    14   ar
    22    15    16   ar
    23    17    18   ar
    24    22    24    2
    25    23    25    1
    26     9    10    1
@<TRIPOS>MOLECULE
MolPort-046-676-541 MCULE-3604227003 PubChem-137944645
 25 26 0 0 0
SMALL
GASTEIGER

@<TRIPOS>ATOM
      1 C          14.0478   41.7927    7.7980 C.ar    1  UNL1        0.1404
      2 C          14.6889   40.8612    8.6300 C.ar    1  UNL1        0.0370
      3 C          13.9851   40.2422    9.6654 C.ar    1  UNL1        0.0044
      4 C          12.6387   40.5500    9.8750 C.ar    1  UNL1        0.0150
      5 C          11.9867   41.4794    9.0508 C.ar    1  UNL1        0.0562
      6 C          12.6994   42.0944    8.0156 C.ar    1  UNL1        0.0517
      7 C           9.4709   41.1177    8.7106 C.2     1  UNL1        0.4057
      8 O           9.6189   40.0714    8.0215 O.2     1  UNL1       -0.2261
      9 N          10.6055   41.8199    9.2337 N.am    1  UNL1       -0.2498
     10 H          10.4170   42.6200    9.7754 H       1  UNL1        0.1582
     11 O           8.1916   41.6076    8.9829 O.3     1  UNL1       -0.4295
     12 C           7.6685   41.6935   10.3040 C.3     1  UNL1        0.2367
     13 C           6.1964   41.9296   10.2683 C.ar    1  UNL1        0.0213
     14 C           5.6260   42.6475    9.2109 C.ar    1  UNL1       -0.0007
     15 C           4.2439   42.8560    9.1715 C.ar    1  UNL1       -0.0002
     16 C           3.4306   42.3449   10.1877 C.ar    1  UNL1       -0.0000
     17 C           3.9990   41.6247   11.2429 C.ar    1  UNL1       -0.0002
     18 C           5.3811   41.4161   11.2825 C.ar    1  UNL1       -0.0007
     19 O          14.7240   42.4299    6.7537 O.3     1  UNL1       -0.4678
     20 C          16.8754   43.4371    7.1275 C.3     1  UNL1        0.0596
     21 C          15.3922   43.6748    6.9170 C.3     1  UNL1        0.2632
     22 C          15.1644   44.5377    5.7215 C.2     1  UNL1        0.3544
     23 O          15.4568   45.8931    5.7869 O.3     1  UNL1       -0.4777
     24 O          14.7019   44.0478    4.6571 O.2     1  UNL1       -0.2463
     25 H          15.8009   46.2606    6.5771 H       1  UNL1        0.2952
@<TRIPOS>BOND
     1    21    20    1
     2    21    19    1
     3    21    22    1
     4     1    19    1
     5     2     3   ar
     6     4     5   ar
     7     5     9    1
     8     7    11    1
     9    12    11    1
    10    12    13    1
    11    14    15   ar
    12    16    17   ar
    13    18    13   ar
    14     6     1   ar
    15    22    23    1
    16     9     7   am
    17     1     2   ar
    18     3     4   ar
    19     5     6   ar
    20     7     8    2
    21    13    14   ar
    22    15    16   ar
    23    17    18   ar
    24    22    24    2
    25    23    25    1
    26     9    10    1
@<TRIPOS>MOLECULE
MolPort-046-676-541 MCULE-3604227003 PubChem-137944645
 25 26 0 0 0
SMALL
GASTEIGER

@<TRIPOS>ATOM
      1 C           6.7654   41.5988   10.0394 C.ar    1  UNL1        0.1404
      2 C           6.9305   41.6792   11.4312 C.ar    1  UNL1        0.0370
      3 C           8.1954   41.5142   11.9997 C.ar    1  UNL1        0.0044
      4 C           9.3010   41.2683   11.1819 C.ar    1  UNL1        0.0150
      5 C           9.1491   41.1853    9.7897 C.ar    1  UNL1        0.0562
      6 C           7.8783   41.3522    9.2287 C.ar    1  UNL1        0.0517
      7 C          11.3595   41.8167    8.6534 C.2     1  UNL1        0.4057
      8 O          11.4397   42.9401    9.2217 O.2     1  UNL1       -0.2261
      9 N          10.2602   40.9360    8.9176 N.am    1  UNL1       -0.2498
     10 H          10.2685   40.0689    8.4515 H       1  UNL1        0.1582
     11 O          12.3502   41.4072    7.7581 O.3     1  UNL1       -0.4295
     12 C          12.5582   42.0425    6.5012 C.3     1  UNL1        0.2367
     13 C          13.8299   42.8212    6.5140 C.ar    1  UNL1        0.0213
     14 C          13.9456   43.9892    5.7517 C.ar    1  UNL1       -0.0007
     15 C          15.1339   44.7259    5.7757 C.ar    1  UNL1       -0.0002
     16 C          16.2065   44.2970    6.5637 C.ar    1  UNL1       -0.0000
     17 C          16.0909   43.1320    7.3283 C.ar    1  UNL1       -0.0002
     18 C          14.9027   42.3952    7.3044 C.ar    1  UNL1       -0.0007
     19 O           5.5131   41.7587    9.4395 O.3     1  UNL1       -0.4678
     20 C           4.3941   40.5474   11.1898 C.3     1  UNL1        0.0596
     21 C           4.4135   40.8994    9.7146 C.3     1  UNL1        0.2632
     22 C           3.1366   41.5604    9.3169 C.2     1  UNL1        0.3544
     23 O           2.2165   40.8674    8.5423 O.3     1  UNL1       -0.4777
     24 O           2.8907   42.7439    9.6715 O.2     1  UNL1       -0.2463
     25 H           2.3963   39.9869    8.2768 H       1  UNL1        0.2952
@<TRIPOS>BOND
     1    21    20    1
     2    21    19    1
     3    21    22    1
     4     1    19    1
     5     2     3   ar
     6     4     5   ar
     7     5     9    1
     8     7    11    1
     9    12    11    1
    10    12    13    1
    11    14    15   ar
    12    16    17   ar
    13    18    13   ar
    14     6     1   ar
    15    22    23    1
    16     9     7   am
    17     1     2   ar
    18     3     4   ar
    19     5     6   ar
    20     7     8    2
    21    13    14   ar
    22    15    16   ar
    23    17    18   ar
    24    22    24    2
    25    23    25    1
    26     9    10    1
@<TRIPOS>MOLECULE
MolPort-046-676-541 MCULE-3604227003 PubChem-137944645
 25 26 0 0 0
SMALL
GASTEIGER

@<TRIPOS>ATOM
      1 C           6.8090   41.9449    9.8903 C.ar    1  UNL1        0.1404
      2 C           6.6962   41.7965   11.2818 C.ar    1  UNL1        0.0370
      3 C           7.8145   41.4537   12.0450 C.ar    1  UNL1        0.0044
      4 C           9.0499   41.2575   11.4231 C.ar    1  UNL1        0.0150
      5 C           9.1756   41.4024   10.0334 C.ar    1  UNL1        0.0562
      6 C           8.0502   41.7465    9.2766 C.ar    1  UNL1        0.0517
      7 C          11.4359   42.2011    9.1229 C.2     1  UNL1        0.4057
      8 O          11.2900   43.3846    9.5346 O.2     1  UNL1       -0.2261
      9 N          10.4271   41.2110    9.3594 N.am    1  UNL1       -0.2498
     10 H          10.6126   40.3042    9.0239 H       1  UNL1        0.1582
     11 O          12.5927   41.8323    8.4326 O.3     1  UNL1       -0.4295
     12 C          12.7697   42.0846    7.0428 C.3     1  UNL1        0.2367
     13 C          14.0122   42.8758    6.8100 C.ar    1  UNL1        0.0213
     14 C          13.9866   43.9901    5.9635 C.ar    1  UNL1       -0.0007
     15 C          15.1492   44.7392    5.7572 C.ar    1  UNL1       -0.0002
     16 C          16.3375   44.3767    6.3990 C.ar    1  UNL1       -0.0000
     17 C          16.3634   43.2656    7.2476 C.ar    1  UNL1       -0.0002
     18 C          15.2010   42.5163    7.4539 C.ar    1  UNL1       -0.0007
     19 O           5.7091   42.2866    9.0982 O.3     1  UNL1       -0.4678
     20 C           5.9433   43.9932    7.4202 C.3     1  UNL1        0.0596
     21 C           5.3788   43.6332    8.7812 C.3     1  UNL1        0.2632
     22 C           3.8979   43.8137    8.7986 C.2     1  UNL1        0.3544
     23 O           3.3479   45.0192    8.3851 O.3     1  UNL1       -0.4777
     24 O           3.1443   42.8844    9.1927 O.2     1  UNL1       -0.2463
     25 H           3.9057   45.7124    8.0914 H       1  UNL1        0.2952
@<TRIPOS>BOND
     1    21    20    1
     2    21    19    1
     3    21    22    1
     4     1    19    1
     5     2     3   ar
     6     4     5   ar
     7     5     9    1
     8     7    11    1
     9    12    11    1
    10    12    13    1
    11    14    15   ar
    12    16    17   ar
    13    18    13   ar
    14     6     1   ar
    15    22    23    1
    16     9     7   am
    17     1     2   ar
    18     3     4   ar
    19     5     6   ar
    20     7     8    2
    21    13    14   ar
    22    15    16   ar
    23    17    18   ar
    24    22    24    2
    25    23    25    1
    26     9    10    1
@<TRIPOS>MOLECULE
MolPort-046-676-541 MCULE-3604227003 PubChem-137944645
 25 26 0 0 0
SMALL
GASTEIGER

@<TRIPOS>ATOM
      1 C          14.0913   40.4171    8.7756 C.ar    1  UNL1        0.1404
      2 C          14.7495   41.3583    7.9683 C.ar    1  UNL1        0.0370
      3 C          14.0550   42.4602    7.4643 C.ar    1  UNL1        0.0044
      4 C          12.7008   42.6277    7.7637 C.ar    1  UNL1        0.0150
      5 C          12.0315   41.6940    8.5689 C.ar    1  UNL1        0.0562
      6 C          12.7352   40.5932    9.0699 C.ar    1  UNL1        0.0517
      7 C          10.0560   42.8308    9.7440 C.2     1  UNL1        0.4057
      8 O          10.7666   43.7270   10.2764 O.2     1  UNL1       -0.2261
      9 N          10.6427   41.8326    8.8994 N.am    1  UNL1       -0.2498
     10 H          10.0279   41.1727    8.5047 H       1  UNL1        0.1582
     11 O           8.6771   42.8010    9.9640 O.3     1  UNL1       -0.4295
     12 C           7.7982   41.9714    9.2116 C.3     1  UNL1        0.2367
     13 C           6.4003   42.1001    9.7149 C.ar    1  UNL1        0.0213
     14 C           6.0189   41.4596   10.8994 C.ar    1  UNL1       -0.0007
     15 C           4.7115   41.5927   11.3774 C.ar    1  UNL1       -0.0002
     16 C           3.7853   42.3682   10.6731 C.ar    1  UNL1       -0.0000
     17 C           4.1662   43.0113    9.4913 C.ar    1  UNL1       -0.0002
     18 C           5.4734   42.8783    9.0131 C.ar    1  UNL1       -0.0007
     19 O          14.7575   39.3035    9.2949 O.3     1  UNL1       -0.4678
     20 C          13.7697   39.2328   11.4863 C.3     1  UNL1        0.0596
     21 C          15.0517   39.1601   10.6790 C.3     1  UNL1        0.2632
     22 C          15.7506   37.8644   10.9212 C.2     1  UNL1        0.3544
     23 O          16.0859   37.0532    9.8459 O.3     1  UNL1       -0.4777
     24 O          16.0312   37.4977   12.0932 O.2     1  UNL1       -0.2463
     25 H          15.8785   37.3230    8.9729 H       1  UNL1        0.2952
@<TRIPOS>BOND
     1    21    20    1
     2    21    19    1
     3    21    22    1
     4     1    19    1
     5     2     3   ar
     6     4     5   ar
     7     5     9    1
     8     7    11    1
     9    12    11    1
    10    12    13    1
    11    14    15   ar
    12    16    17   ar
    13    18    13   ar
    14     6     1   ar
    15    22    23    1
    16     9     7   am
    17     1     2   ar
    18     3     4   ar
    19     5     6   ar
    20     7     8    2
    21    13    14   ar
    22    15    16   ar
    23    17    18   ar
    24    22    24    2
    25    23    25    1
    26     9    10    1
@<TRIPOS>MOLECULE
MolPort-046-676-541 MCULE-3604227003 PubChem-137944645
 25 26 0 0 0
SMALL
GASTEIGER

@<TRIPOS>ATOM
      1 C          13.5772   38.9420   10.2972 C.ar    1  UNL1        0.1404
      2 C          13.4448   37.5728   10.0169 C.ar    1  UNL1        0.0370
      3 C          12.1903   37.0334    9.7239 C.ar    1  UNL1        0.0044
      4 C          11.0627   37.8578    9.7095 C.ar    1  UNL1        0.0150
      5 C          11.1817   39.2276    9.9883 C.ar    1  UNL1        0.0562
      6 C          12.4424   39.7596   10.2803 C.ar    1  UNL1        0.0517
      7 C           9.5566   40.8660    8.8701 C.2     1  UNL1        0.4057
      8 O          10.1152   40.7965    7.7411 O.2     1  UNL1       -0.2261
      9 N          10.0478   40.1059    9.9814 N.am    1  UNL1       -0.2498
     10 H           9.5552   40.1961   10.8290 H       1  UNL1        0.1582
     11 O           8.4395   41.6838    9.0549 O.3     1  UNL1       -0.4295
     12 C           7.8272   41.8699   10.3265 C.3     1  UNL1        0.2367
     13 C           6.3815   41.5089   10.2675 C.ar    1  UNL1        0.0213
     14 C           5.7256   41.4369    9.0332 C.ar    1  UNL1       -0.0007
     15 C           4.3735   41.0847    8.9785 C.ar    1  UNL1       -0.0002
     16 C           3.6766   40.8016   10.1573 C.ar    1  UNL1       -0.0000
     17 C           4.3317   40.8700   11.3908 C.ar    1  UNL1       -0.0002
     18 C           5.6837   41.2223   11.4457 C.ar    1  UNL1       -0.0007
     19 O          14.8182   39.5125   10.5946 O.3     1  UNL1       -0.4678
     20 C          15.5443   41.0416    8.8865 C.3     1  UNL1        0.0596
     21 C          15.8180   39.7357    9.6079 C.3     1  UNL1        0.2632
     22 C          17.1671   39.7615   10.2443 C.2     1  UNL1        0.3544
     23 O          18.2470   40.2816    9.5443 O.3     1  UNL1       -0.4777
     24 O          17.3350   39.3083   11.4076 O.2     1  UNL1       -0.2463
     25 H          18.1255   40.6195    8.6788 H       1  UNL1        0.2952
@<TRIPOS>BOND
     1    21    20    1
     2    21    19    1
     3    21    22    1
     4     1    19    1
     5     2     3   ar
     6     4     5   ar
     7     5     9    1
     8     7    11    1
     9    12    11    1
    10    12    13    1
    11    14    15   ar
    12    16    17   ar
    13    18    13   ar
    14     6     1   ar
    15    22    23    1
    16     9     7   am
    17     1     2   ar
    18     3     4   ar
    19     5     6   ar
    20     7     8    2
    21    13    14   ar
    22    15    16   ar
    23    17    18   ar
    24    22    24    2
    25    23    25    1
    26     9    10    1
@<TRIPOS>MOLECULE
MolPort-046-676-541 MCULE-3604227003 PubChem-137944645
 25 26 0 0 0
SMALL
GASTEIGER

@<TRIPOS>ATOM
      1 C          13.6356   37.3599    9.5121 C.ar    1  UNL1        0.1404
      2 C          13.1674   36.2792   10.2761 C.ar    1  UNL1        0.0370
      3 C          11.7993   36.1243   10.5103 C.ar    1  UNL1        0.0044
      4 C          10.8926   37.0471    9.9833 C.ar    1  UNL1        0.0150
      5 C          11.3478   38.1316    9.2186 C.ar    1  UNL1        0.0562
      6 C          12.7201   38.2788    8.9886 C.ar    1  UNL1        0.0517
      7 C          10.0987   40.3712    9.2183 C.2     1  UNL1        0.4057
      8 O          10.6070   40.7623   10.3046 O.2     1  UNL1       -0.2261
      9 N          10.4477   39.0984    8.6596 N.am    1  UNL1       -0.2498
     10 H          10.0254   38.8629    7.8020 H       1  UNL1        0.1582
     11 O           9.1881   41.1798    8.5344 O.3     1  UNL1       -0.4295
     12 C           7.9148   40.7085    8.1063 C.3     1  UNL1        0.2367
     13 C           6.8751   41.7586    8.3066 C.ar    1  UNL1        0.0213
     14 C           7.0663   43.0440    7.7871 C.ar    1  UNL1       -0.0007
     15 C           6.0842   44.0236    7.9637 C.ar    1  UNL1       -0.0002
     16 C           4.9091   43.7183    8.6575 C.ar    1  UNL1       -0.0000
     17 C           4.7156   42.4334    9.1742 C.ar    1  UNL1       -0.0002
     18 C           5.6975   41.4538    8.9977 C.ar    1  UNL1       -0.0007
     19 O          14.9981   37.5435    9.2601 O.3     1  UNL1       -0.4678
     20 C          15.4257   39.8377    9.8407 C.3     1  UNL1        0.0596
     21 C          15.8200   38.3889   10.0556 C.3     1  UNL1        0.2632
     22 C          15.6915   38.0189   11.4951 C.2     1  UNL1        0.3544
     23 O          14.8811   38.7766   12.3295 O.3     1  UNL1       -0.4777
     24 O          16.3181   37.0301   11.9605 O.2     1  UNL1       -0.2463
     25 H          14.4137   39.5127   11.9865 H       1  UNL1        0.2952
@<TRIPOS>BOND
     1    21    20    1
     2    21    19    1
     3    21    22    1
     4     1    19    1
     5     2     3   ar
     6     4     5   ar
     7     5     9    1
     8     7    11    1
     9    12    11    1
    10    12    13    1
    11    14    15   ar
    12    16    17   ar
    13    18    13   ar
    14     6     1   ar
    15    22    23    1
    16     9     7   am
    17     1     2   ar
    18     3     4   ar
    19     5     6   ar
    20     7     8    2
    21    13    14   ar
    22    15    16   ar
    23    17    18   ar
    24    22    24    2
    25    23    25    1
    26     9    10    1
@<TRIPOS>MOLECULE
MolPort-046-676-541 MCULE-3604227003 PubChem-137944645
 25 26 0 0 0
SMALL
GASTEIGER

@<TRIPOS>ATOM
      1 C           9.4579   39.3717    6.3854 C.ar    1  UNL1        0.1404
      2 C          10.7095   39.6349    6.9640 C.ar    1  UNL1        0.0370
      3 C          10.8626   40.7008    7.8534 C.ar    1  UNL1        0.0044
      4 C           9.7675   41.5086    8.1691 C.ar    1  UNL1        0.0150
      5 C           8.5116   41.2563    7.5972 C.ar    1  UNL1        0.0562
      6 C           8.3671   40.1861    6.7075 C.ar    1  UNL1        0.0517
      7 C           6.7114   42.9894    7.0213 C.2     1  UNL1        0.4057
      8 O           7.1189   43.1588    5.8395 O.2     1  UNL1       -0.2261
      9 N           7.3638   42.0621    7.8980 N.am    1  UNL1       -0.2498
     10 H           6.9843   41.9684    8.8015 H       1  UNL1        0.1582
     11 O           5.6070   43.7011    7.4952 O.3     1  UNL1       -0.4295
     12 C           5.3849   43.9387    8.8811 C.3     1  UNL1        0.2367
     13 C           4.7557   42.7476    9.5207 C.ar    1  UNL1        0.0213
     14 C           5.4596   42.0128   10.4817 C.ar    1  UNL1       -0.0007
     15 C           4.8629   40.9045   11.0907 C.ar    1  UNL1       -0.0002
     16 C           3.5613   40.5314   10.7416 C.ar    1  UNL1       -0.0000
     17 C           2.8559   41.2667    9.7840 C.ar    1  UNL1       -0.0002
     18 C           3.4523   42.3750    9.1748 C.ar    1  UNL1       -0.0007
     19 O           9.2716   38.3134    5.4914 O.3     1  UNL1       -0.4678
     20 C          10.0458   39.8130    3.7783 C.3     1  UNL1        0.0596
     21 C           9.4506   38.4525    4.0873 C.3     1  UNL1        0.2632
     22 C          10.3343   37.3654    3.5746 C.2     1  UNL1        0.3544
     23 O          11.7129   37.5197    3.6248 O.3     1  UNL1       -0.4777
     24 O           9.8396   36.3132    3.0900 O.2     1  UNL1       -0.2463
     25 H          12.0841   38.3011    3.9847 H       1  UNL1        0.2952
@<TRIPOS>BOND
     1    21    20    1
     2    21    19    1
     3    21    22    1
     4     1    19    1
     5     2     3   ar
     6     4     5   ar
     7     5     9    1
     8     7    11    1
     9    12    11    1
    10    12    13    1
    11    14    15   ar
    12    16    17   ar
    13    18    13   ar
    14     6     1   ar
    15    22    23    1
    16     9     7   am
    17     1     2   ar
    18     3     4   ar
    19     5     6   ar
    20     7     8    2
    21    13    14   ar
    22    15    16   ar
    23    17    18   ar
    24    22    24    2
    25    23    25    1
    26     9    10    1
@<TRIPOS>MOLECULE
MolPort-046-676-541 MCULE-3604227003 PubChem-137944645
 25 26 0 0 0
SMALL
GASTEIGER

@<TRIPOS>ATOM
      1 C           6.5031   41.3134    7.9631 C.ar    1  UNL1        0.1404
      2 C           6.1224   40.3024    7.0666 C.ar    1  UNL1        0.0370
      3 C           7.0629   39.7403    6.2005 C.ar    1  UNL1        0.0044
      4 C           8.3871   40.1845    6.2253 C.ar    1  UNL1        0.0150
      5 C           8.7800   41.1945    7.1162 C.ar    1  UNL1        0.0562
      6 C           7.8313   41.7518    7.9806 C.ar    1  UNL1        0.0517
      7 C          11.0716   41.4711    8.2332 C.2     1  UNL1        0.4057
      8 O          10.7622   40.7936    9.2514 O.2     1  UNL1       -0.2261
      9 N          10.1301   41.6755    7.1722 N.am    1  UNL1       -0.2498
     10 H          10.4428   42.2013    6.4009 H       1  UNL1        0.1582
     11 O          12.3465   42.0301    8.1190 O.3     1  UNL1       -0.4295
     12 C          13.3105   41.5570    7.1844 C.3     1  UNL1        0.2367
     13 C          14.2946   42.6298    6.8613 C.ar    1  UNL1        0.0213
     14 C          13.9452   43.6615    5.9825 C.ar    1  UNL1       -0.0007
     15 C          14.8643   44.6743    5.6914 C.ar    1  UNL1       -0.0002
     16 C          16.1324   44.6580    6.2804 C.ar    1  UNL1       -0.0000
     17 C          16.4814   43.6295    7.1611 C.ar    1  UNL1       -0.0002
     18 C          15.5626   42.6166    7.4523 C.ar    1  UNL1       -0.0007
     19 O           5.5862   41.8968    8.8422 O.3     1  UNL1       -0.4678
     20 C           4.8220   41.1429   10.9940 C.3     1  UNL1        0.0596
     21 C           4.5688   41.1506    9.4986 C.3     1  UNL1        0.2632
     22 C           3.2303   41.7364    9.1969 C.2     1  UNL1        0.3544
     23 O           2.2452   40.9417    8.6269 O.3     1  UNL1       -0.4777
     24 O           2.9901   42.9473    9.4478 O.2     1  UNL1       -0.2463
     25 H           2.4207   40.0406    8.4390 H       1  UNL1        0.2952
@<TRIPOS>BOND
     1    21    20    1
     2    21    19    1
     3    21    22    1
     4     1    19    1
     5     2     3   ar
     6     4     5   ar
     7     5     9    1
     8     7    11    1
     9    12    11    1
    10    12    13    1
    11    14    15   ar
    12    16    17   ar
    13    18    13   ar
    14     6     1   ar
    15    22    23    1
    16     9     7   am
    17     1     2   ar
    18     3     4   ar
    19     5     6   ar
    20     7     8    2
    21    13    14   ar
    22    15    16   ar
    23    17    18   ar
    24    22    24    2
    25    23    25    1
    26     9    10    1
