@<TRIPOS>MOLECULE
MolPort-002-566-700 ChemDiv-4190-0054 LN00531081 PubChem-1920789
 26 28 0 0 0
SMALL
GASTEIGER

@<TRIPOS>ATOM
      1 C           3.0475   41.4913   12.0032 C.2     1  UNL1        0.2509
      2 O           2.8734   40.4404   12.6775 O.2     1  UNL1       -0.2698
      3 N           2.2398   42.6533   12.2394 N.am    1  UNL1       -0.2606
      4 H           2.4250   43.4417   11.6796 H       1  UNL1        0.1571
      5 C          -0.3476   44.7287   15.7833 C.ar    1  UNL1        0.1566
      6 C           0.0191   43.7646   14.8391 C.ar    1  UNL1        0.1230
      7 C           1.1911   42.7830   13.2070 C.ar    1  UNL1        0.1659
      8 C          -0.7229   42.6011   14.6984 C.ar    1  UNL1        0.0527
      9 C          -1.8489   42.3385   15.4728 C.ar    1  UNL1        0.0083
     10 C          -2.2300   43.2975   16.4231 C.ar    1  UNL1        0.0037
     11 C          -1.4874   44.4832   16.5780 C.ar    1  UNL1        0.0385
     12 N           1.0887   43.8702   14.0086 N.ar    1  UNL1       -0.2208
     13 S          -0.0400   41.6500   13.4979 S.2     1  UNL1       -0.0513
     14 O           0.4077   45.9010   15.9135 O.3     1  UNL1       -0.4739
     15 C           2.6228   46.0616   16.8613 C.3     1  UNL1        0.0512
     16 C           1.1330   46.2372   17.0915 C.3     1  UNL1        0.2056
     17 C           4.0903   41.5266   10.9624 C.ar    1  UNL1        0.0539
     18 C           5.4290   41.7581   11.3083 C.ar    1  UNL1        0.0076
     19 C           6.4192   41.7915   10.3224 C.ar    1  UNL1        0.0370
     20 C           6.0855   41.5936    8.9793 C.ar    1  UNL1        0.1384
     21 C           4.7456   41.3633    8.6292 C.ar    1  UNL1        0.0370
     22 C           3.7558   41.3297    9.6150 C.ar    1  UNL1        0.0076
     23 O           7.0999   41.6359    8.0163 O.3     1  UNL1       -0.4792
     24 C           8.2173   40.7540    8.0203 C.3     1  UNL1        0.1661
     25 C           9.4815   41.5159    7.6692 C.3     1  UNL1        0.0472
     26 C           7.9971   39.6618    6.9954 C.3     1  UNL1        0.0472
@<TRIPOS>BOND
     1    15    16    1
     2    16    14    1
     3     5    14    1
     4     6    12   ar
     5     7     3    1
     6     7    13   ar
     7     1    17    1
     8    18    19   ar
     9    20    23    1
    10    20    21   ar
    11    24    23    1
    12    24    25    1
    13    24    26    1
    14    22    17   ar
    15     8    13   ar
    16     8     6   ar
    17     9    10   ar
    18    11     5   ar
    19     3     1   am
    20     5     6   ar
    21     7    12   ar
    22     1     2    2
    23    17    18   ar
    24    19    20   ar
    25    21    22   ar
    26     8     9   ar
    27    10    11   ar
    28     3     4    1
@<TRIPOS>MOLECULE
MolPort-002-566-700 ChemDiv-4190-0054 LN00531081 PubChem-1920789
 26 28 0 0 0
SMALL
GASTEIGER

@<TRIPOS>ATOM
      1 C          10.6998   42.4170    8.9997 C.2     1  UNL1        0.2509
      2 O          11.1046   43.3806    9.7047 O.2     1  UNL1       -0.2698
      3 N          11.6021   41.7180    8.1304 N.am    1  UNL1       -0.2606
      4 H          11.2246   40.9750    7.6062 H       1  UNL1        0.1571
      5 C          16.3787   41.3167    8.8949 C.ar    1  UNL1        0.1566
      6 C          15.1916   41.7837    8.3222 C.ar    1  UNL1        0.1230
      7 C          12.9967   41.9911    7.9475 C.ar    1  UNL1        0.1659
      8 C          15.2242   42.7466    7.3243 C.ar    1  UNL1        0.0527
      9 C          16.4159   43.2862    6.8497 C.ar    1  UNL1        0.0083
     10 C          17.6151   42.8260    7.4135 C.ar    1  UNL1        0.0037
     11 C          17.5987   41.8493    8.4270 C.ar    1  UNL1        0.0385
     12 N          13.9500   41.3592    8.6733 N.ar    1  UNL1       -0.2208
     13 S          13.6569   43.0999    6.8435 S.2     1  UNL1       -0.0513
     14 O          16.3328   40.3417    9.8993 O.3     1  UNL1       -0.4739
     15 C          14.8791   38.9637   11.2480 C.3     1  UNL1        0.0512
     16 C          15.4494   39.2257    9.8662 C.3     1  UNL1        0.2056
     17 C           9.2867   42.0047    9.0690 C.ar    1  UNL1        0.0539
     18 C           8.6902   41.3355    7.9911 C.ar    1  UNL1        0.0076
     19 C           7.3501   40.9435    8.0554 C.ar    1  UNL1        0.0370
     20 C           6.5891   41.2139    9.1965 C.ar    1  UNL1        0.1384
     21 C           7.1828   41.8853   10.2771 C.ar    1  UNL1        0.0370
     22 C           8.5227   42.2770   10.2127 C.ar    1  UNL1        0.0076
     23 O           5.2496   40.8107    9.2283 O.3     1  UNL1       -0.4792
     24 C           4.3181   41.2726   10.2005 C.3     1  UNL1        0.1661
     25 C           4.1797   40.2510   11.3138 C.3     1  UNL1        0.0472
     26 C           2.9688   41.4757    9.5448 C.3     1  UNL1        0.0472
@<TRIPOS>BOND
     1    15    16    1
     2    16    14    1
     3     5    14    1
     4     6    12   ar
     5     7     3    1
     6     7    13   ar
     7     1    17    1
     8    18    19   ar
     9    20    23    1
    10    20    21   ar
    11    24    23    1
    12    24    25    1
    13    24    26    1
    14    22    17   ar
    15     8    13   ar
    16     8     6   ar
    17     9    10   ar
    18    11     5   ar
    19     3     1   am
    20     5     6   ar
    21     7    12   ar
    22     1     2    2
    23    17    18   ar
    24    19    20   ar
    25    21    22   ar
    26     8     9   ar
    27    10    11   ar
    28     3     4    1
@<TRIPOS>MOLECULE
MolPort-002-566-700 ChemDiv-4190-0054 LN00531081 PubChem-1920789
 26 28 0 0 0
SMALL
GASTEIGER

@<TRIPOS>ATOM
      1 C           2.8666   41.8156   12.0689 C.2     1  UNL1        0.2509
      2 O           2.9374   40.7882   12.7961 O.2     1  UNL1       -0.2698
      3 N           1.8914   42.8336   12.3352 N.am    1  UNL1       -0.2606
      4 H           1.8872   43.6108   11.7309 H       1  UNL1        0.1571
      5 C          -0.5968   44.5695   16.1242 C.ar    1  UNL1        0.1566
      6 C          -0.2065   43.6616   15.1349 C.ar    1  UNL1        0.1230
      7 C           0.9229   42.8343   13.3911 C.ar    1  UNL1        0.1659
      8 C          -0.8210   42.4218   15.0371 C.ar    1  UNL1        0.0527
      9 C          -1.8382   42.0255   15.9002 C.ar    1  UNL1        0.0083
     10 C          -2.2416   42.9266   16.8966 C.ar    1  UNL1        0.0037
     11 C          -1.6278   44.1884   17.0089 C.ar    1  UNL1        0.0385
     12 N           0.7678   43.8960   14.2180 N.ar    1  UNL1       -0.2208
     13 S          -0.1414   41.5651   13.7657 S.2     1  UNL1       -0.0513
     14 O           0.0288   45.8196   16.2104 O.3     1  UNL1       -0.4739
     15 C          -0.3152   47.3738   14.3946 C.3     1  UNL1        0.0512
     16 C          -0.6079   47.0396   15.8458 C.3     1  UNL1        0.2056
     17 C           3.7941   41.9723   10.9344 C.ar    1  UNL1        0.0539
     18 C           4.9807   41.2276   10.8813 C.ar    1  UNL1        0.0076
     19 C           5.8613   41.3749    9.8058 C.ar    1  UNL1        0.0370
     20 C           5.5679   42.2667    8.7699 C.ar    1  UNL1        0.1384
     21 C           4.3814   43.0153    8.8208 C.ar    1  UNL1        0.0370
     22 C           3.5011   42.8678    9.8960 C.ar    1  UNL1        0.0076
     23 O           6.4715   42.3929    7.7089 O.3     1  UNL1       -0.4792
     24 C           7.6301   43.2180    7.7642 C.3     1  UNL1        0.1661
     25 C           8.8181   42.4130    8.2568 C.3     1  UNL1        0.0472
     26 C           7.3816   44.3673    8.7177 C.3     1  UNL1        0.0472
@<TRIPOS>BOND
     1    15    16    1
     2    16    14    1
     3     5    14    1
     4     6    12   ar
     5     7     3    1
     6     7    13   ar
     7     1    17    1
     8    18    19   ar
     9    20    23    1
    10    20    21   ar
    11    24    23    1
    12    24    25    1
    13    24    26    1
    14    22    17   ar
    15     8    13   ar
    16     8     6   ar
    17     9    10   ar
    18    11     5   ar
    19     3     1   am
    20     5     6   ar
    21     7    12   ar
    22     1     2    2
    23    17    18   ar
    24    19    20   ar
    25    21    22   ar
    26     8     9   ar
    27    10    11   ar
    28     3     4    1
@<TRIPOS>MOLECULE
MolPort-002-566-700 ChemDiv-4190-0054 LN00531081 PubChem-1920789
 26 28 0 0 0
SMALL
GASTEIGER

@<TRIPOS>ATOM
      1 C           7.6792   41.0401    6.3341 C.2     1  UNL1        0.2509
      2 O           7.3849   42.2538    6.1617 O.2     1  UNL1       -0.2698
      3 N           7.0033   40.2585    7.3295 N.am    1  UNL1       -0.2606
      4 H           7.2789   39.3173    7.4149 H       1  UNL1        0.1571
      5 C           5.0454   41.9499   11.4365 C.ar    1  UNL1        0.1566
      6 C           5.0954   41.4886   10.1173 C.ar    1  UNL1        0.1230
      7 C           5.9679   40.7085    8.2118 C.ar    1  UNL1        0.1659
      8 C           3.9356   41.3909    9.3627 C.ar    1  UNL1        0.0527
      9 C           2.6872   41.7409    9.8684 C.ar    1  UNL1        0.0083
     10 C           2.6217   42.2071   11.1898 C.ar    1  UNL1        0.0037
     11 C           3.7897   42.3119   11.9684 C.ar    1  UNL1        0.0385
     12 N           6.2323   41.1085    9.4787 N.ar    1  UNL1       -0.2208
     13 S           4.3150   40.8106    7.8358 S.2     1  UNL1       -0.0513
     14 O           6.2239   42.0474   12.1870 O.3     1  UNL1       -0.4739
     15 C           8.6191   41.7414   12.1875 C.3     1  UNL1        0.0512
     16 C           7.2585   41.0702   12.1487 C.3     1  UNL1        0.2056
     17 C           8.7273   40.4182    5.5056 C.ar    1  UNL1        0.0539
     18 C          10.0660   40.8110    5.6439 C.ar    1  UNL1        0.0076
     19 C          11.0613   40.2219    4.8591 C.ar    1  UNL1        0.0370
     20 C          10.7329   39.2330    3.9271 C.ar    1  UNL1        0.1384
     21 C           9.3931   38.8384    3.7848 C.ar    1  UNL1        0.0370
     22 C           8.3982   39.4274    4.5696 C.ar    1  UNL1        0.0076
     23 O          11.7523   38.6650    3.1550 O.3     1  UNL1       -0.4792
     24 C          12.0017   37.2646    3.0998 C.3     1  UNL1        0.1661
     25 C          10.7599   36.4990    3.5171 C.3     1  UNL1        0.0472
     26 C          13.1353   36.9201    4.0422 C.3     1  UNL1        0.0472
@<TRIPOS>BOND
     1    15    16    1
     2    16    14    1
     3     5    14    1
     4     6    12   ar
     5     7     3    1
     6     7    13   ar
     7     1    17    1
     8    18    19   ar
     9    20    23    1
    10    20    21   ar
    11    24    23    1
    12    24    25    1
    13    24    26    1
    14    22    17   ar
    15     8    13   ar
    16     8     6   ar
    17     9    10   ar
    18    11     5   ar
    19     3     1   am
    20     5     6   ar
    21     7    12   ar
    22     1     2    2
    23    17    18   ar
    24    19    20   ar
    25    21    22   ar
    26     8     9   ar
    27    10    11   ar
    28     3     4    1
@<TRIPOS>MOLECULE
MolPort-002-566-700 ChemDiv-4190-0054 LN00531081 PubChem-1920789
 26 28 0 0 0
SMALL
GASTEIGER

@<TRIPOS>ATOM
      1 C          15.3239   36.6720    9.1608 C.2     1  UNL1        0.2509
      2 O          15.6063   37.0734   10.3221 O.2     1  UNL1       -0.2698
      3 N          14.1544   37.1555    8.4848 N.am    1  UNL1       -0.2606
      4 H          13.9892   36.8034    7.5804 H       1  UNL1        0.1571
      5 C          10.5111   40.3594    8.3314 C.ar    1  UNL1        0.1566
      6 C          11.5216   39.5700    8.8894 C.ar    1  UNL1        0.1230
      7 C          13.2024   38.0985    8.9921 C.ar    1  UNL1        0.1659
      8 C          11.7734   39.6116   10.2529 C.ar    1  UNL1        0.0527
      9 C          11.0476   40.4235   11.1191 C.ar    1  UNL1        0.0083
     10 C          10.0295   41.2197   10.5739 C.ar    1  UNL1        0.0037
     11 C           9.7617   41.1888    9.1924 C.ar    1  UNL1        0.0385
     12 N          12.3171   38.7267    8.1817 N.ar    1  UNL1       -0.2208
     13 S          13.0325   38.5651   10.6161 S.2     1  UNL1       -0.0513
     14 O          10.2641   40.3059    6.9538 O.3     1  UNL1       -0.4739
     15 C          10.6835   40.4340    4.5792 C.3     1  UNL1        0.0512
     16 C          11.2065   40.7272    5.9734 C.3     1  UNL1        0.2056
     17 C          16.2030   35.6969    8.4915 C.ar    1  UNL1        0.0539
     18 C          17.5748   35.9537    8.3591 C.ar    1  UNL1        0.0076
     19 C          18.4100   35.0297    7.7248 C.ar    1  UNL1        0.0370
     20 C          17.8864   33.8377    7.2155 C.ar    1  UNL1        0.1384
     21 C          16.5128   33.5781    7.3449 C.ar    1  UNL1        0.0370
     22 C          15.6779   34.5019    7.9792 C.ar    1  UNL1        0.0076
     23 O          18.7487   32.9348    6.5837 O.3     1  UNL1       -0.4792
     24 C          18.7463   32.7059    5.1788 C.3     1  UNL1        0.1661
     25 C          19.2530   31.3074    4.8795 C.3     1  UNL1        0.0472
     26 C          19.6520   33.7150    4.5053 C.3     1  UNL1        0.0472
@<TRIPOS>BOND
     1    15    16    1
     2    16    14    1
     3     5    14    1
     4     6    12   ar
     5     7     3    1
     6     7    13   ar
     7     1    17    1
     8    18    19   ar
     9    20    23    1
    10    20    21   ar
    11    24    23    1
    12    24    25    1
    13    24    26    1
    14    22    17   ar
    15     8    13   ar
    16     8     6   ar
    17     9    10   ar
    18    11     5   ar
    19     3     1   am
    20     5     6   ar
    21     7    12   ar
    22     1     2    2
    23    17    18   ar
    24    19    20   ar
    25    21    22   ar
    26     8     9   ar
    27    10    11   ar
    28     3     4    1
@<TRIPOS>MOLECULE
MolPort-002-566-700 ChemDiv-4190-0054 LN00531081 PubChem-1920789
 26 28 0 0 0
SMALL
GASTEIGER

@<TRIPOS>ATOM
      1 C           6.5128   41.3689    9.3292 C.2     1  UNL1        0.2509
      2 O           6.5270   40.7475    8.2324 O.2     1  UNL1       -0.2698
      3 N           7.7335   41.8396    9.9183 N.am    1  UNL1       -0.2606
      4 H           7.6553   42.3175   10.7754 H       1  UNL1        0.1571
      5 C          12.4044   40.5207    9.8498 C.ar    1  UNL1        0.1566
      6 C          11.2034   41.0650    9.3843 C.ar    1  UNL1        0.1230
      7 C           9.0547   41.6849    9.3860 C.ar    1  UNL1        0.1659
      8 C          11.1306   41.6263    8.1178 C.ar    1  UNL1        0.0527
      9 C          12.2263   41.6748    7.2614 C.ar    1  UNL1        0.0083
     10 C          13.4376   41.1309    7.7140 C.ar    1  UNL1        0.0037
     11 C          13.5276   40.5579    8.9966 C.ar    1  UNL1        0.0385
     12 N          10.0468   41.0957   10.0958 N.ar    1  UNL1       -0.2208
     13 S           9.5741   42.1901    7.8501 S.2     1  UNL1       -0.0513
     14 O          12.4643   39.9537   11.1290 O.3     1  UNL1       -0.4739
     15 C          13.5581   37.8177   11.3976 C.3     1  UNL1        0.0512
     16 C          13.6255   39.3132   11.6470 C.3     1  UNL1        0.2056
     17 C           5.2306   41.6141   10.0129 C.ar    1  UNL1        0.0539
     18 C           4.2740   42.4646    9.4411 C.ar    1  UNL1        0.0076
     19 C           3.0572   42.6979   10.0881 C.ar    1  UNL1        0.0370
     20 C           2.7800   42.0846   11.3135 C.ar    1  UNL1        0.1384
     21 C           3.7363   41.2336   11.8897 C.ar    1  UNL1        0.0370
     22 C           4.9527   41.0003   11.2427 C.ar    1  UNL1        0.0076
     23 O           1.5537   42.3410   11.9368 O.3     1  UNL1       -0.4792
     24 C           1.4025   42.4469   13.3482 C.3     1  UNL1        0.1661
     25 C           0.3169   41.5011   13.8268 C.3     1  UNL1        0.0472
     26 C           1.0150   43.8661   13.7054 C.3     1  UNL1        0.0472
@<TRIPOS>BOND
     1    15    16    1
     2    16    14    1
     3     5    14    1
     4     6    12   ar
     5     7     3    1
     6     7    13   ar
     7     1    17    1
     8    18    19   ar
     9    20    23    1
    10    20    21   ar
    11    24    23    1
    12    24    25    1
    13    24    26    1
    14    22    17   ar
    15     8    13   ar
    16     8     6   ar
    17     9    10   ar
    18    11     5   ar
    19     3     1   am
    20     5     6   ar
    21     7    12   ar
    22     1     2    2
    23    17    18   ar
    24    19    20   ar
    25    21    22   ar
    26     8     9   ar
    27    10    11   ar
    28     3     4    1
@<TRIPOS>MOLECULE
MolPort-002-566-700 ChemDiv-4190-0054 LN00531081 PubChem-1920789
 26 28 0 0 0
SMALL
GASTEIGER

@<TRIPOS>ATOM
      1 C          16.3540   34.1582    6.7981 C.2     1  UNL1        0.2509
      2 O          16.5333   33.4681    7.8378 O.2     1  UNL1       -0.2698
      3 N          15.9360   35.5274    6.8929 N.am    1  UNL1       -0.2606
      4 H          15.8133   36.0120    6.0447 H       1  UNL1        0.1571
      5 C          13.4393   38.3032    9.9950 C.ar    1  UNL1        0.1566
      6 C          14.5041   37.5410    9.5045 C.ar    1  UNL1        0.1230
      7 C          15.6790   36.2613    8.0963 C.ar    1  UNL1        0.1659
      8 C          15.6542   37.3716   10.2614 C.ar    1  UNL1        0.0527
      9 C          15.8047   37.9389   11.5232 C.ar    1  UNL1        0.0083
     10 C          14.7439   38.7048   12.0291 C.ar    1  UNL1        0.0037
     11 C          13.5704   38.8860   11.2732 C.ar    1  UNL1        0.0385
     12 N          14.5138   36.9229    8.2950 N.ar    1  UNL1       -0.2208
     13 S          16.7411   36.4179    9.4122 S.2     1  UNL1       -0.0513
     14 O          12.2820   38.4639    9.2227 O.3     1  UNL1       -0.4739
     15 C          10.0522   38.0725    8.3826 C.3     1  UNL1        0.0512
     16 C          11.1278   37.6423    9.3630 C.3     1  UNL1        0.2056
     17 C          16.5755   33.5529    5.4728 C.ar    1  UNL1        0.0539
     18 C          17.8706   33.4589    4.9444 C.ar    1  UNL1        0.0076
     19 C          18.0825   32.8847    3.6877 C.ar    1  UNL1        0.0370
     20 C          17.0044   32.3967    2.9435 C.ar    1  UNL1        0.1384
     21 C          15.7059   32.4907    3.4690 C.ar    1  UNL1        0.0370
     22 C          15.4943   33.0646    4.7253 C.ar    1  UNL1        0.0076
     23 O          17.2498   31.8301    1.6878 O.3     1  UNL1       -0.4792
     24 C          16.6182   32.2770    0.4929 C.3     1  UNL1        0.1661
     25 C          16.8727   31.2887   -0.6299 C.3     1  UNL1        0.0472
     26 C          17.1830   33.6261    0.1020 C.3     1  UNL1        0.0472
@<TRIPOS>BOND
     1    15    16    1
     2    16    14    1
     3     5    14    1
     4     6    12   ar
     5     7     3    1
     6     7    13   ar
     7     1    17    1
     8    18    19   ar
     9    20    23    1
    10    20    21   ar
    11    24    23    1
    12    24    25    1
    13    24    26    1
    14    22    17   ar
    15     8    13   ar
    16     8     6   ar
    17     9    10   ar
    18    11     5   ar
    19     3     1   am
    20     5     6   ar
    21     7    12   ar
    22     1     2    2
    23    17    18   ar
    24    19    20   ar
    25    21    22   ar
    26     8     9   ar
    27    10    11   ar
    28     3     4    1
@<TRIPOS>MOLECULE
MolPort-002-566-700 ChemDiv-4190-0054 LN00531081 PubChem-1920789
 26 28 0 0 0
SMALL
GASTEIGER

@<TRIPOS>ATOM
      1 C          11.0270   41.5828    6.7132 C.2     1  UNL1        0.2509
      2 O          11.4426   41.0956    5.6272 O.2     1  UNL1       -0.2698
      3 N          11.9045   42.3426    7.5565 N.am    1  UNL1       -0.2606
      4 H          11.5197   42.6959    8.3909 H       1  UNL1        0.1571
      5 C          16.7162   42.0676    8.1345 C.ar    1  UNL1        0.1566
      6 C          15.4964   42.4909    7.5974 C.ar    1  UNL1        0.1230
      7 C          13.2840   42.6395    7.3077 C.ar    1  UNL1        0.1659
      8 C          15.4666   43.4223    6.5699 C.ar    1  UNL1        0.0527
      9 C          16.6255   43.9718    6.0301 C.ar    1  UNL1        0.0083
     10 C          17.8568   43.5553    6.5576 C.ar    1  UNL1        0.0037
     11 C          17.9037   42.6111    7.6004 C.ar    1  UNL1        0.0385
     12 N          14.2801   42.0513    8.0125 N.ar    1  UNL1       -0.2208
     13 S          13.8735   43.7267    6.1438 S.2     1  UNL1       -0.0513
     14 O          16.7332   41.1240    9.1694 O.3     1  UNL1       -0.4739
     15 C          16.1218   39.0214   10.1872 C.3     1  UNL1        0.0512
     16 C          15.6377   40.2628    9.4606 C.3     1  UNL1        0.2056
     17 C           9.6268   41.3698    7.1205 C.ar    1  UNL1        0.0539
     18 C           8.6151   41.2722    6.1550 C.ar    1  UNL1        0.0076
     19 C           7.2866   41.0699    6.5397 C.ar    1  UNL1        0.0370
     20 C           6.9519   40.9617    7.8928 C.ar    1  UNL1        0.1384
     21 C           7.9623   41.0606    8.8623 C.ar    1  UNL1        0.0370
     22 C           9.2904   41.2628    8.4776 C.ar    1  UNL1        0.0076
     23 O           5.6124   40.7620    8.2449 O.3     1  UNL1       -0.4792
     24 C           4.8612   41.6926    9.0170 C.3     1  UNL1        0.1661
     25 C           5.4628   43.0795    8.8884 C.3     1  UNL1        0.0472
     26 C           4.8889   41.2742   10.4717 C.3     1  UNL1        0.0472
@<TRIPOS>BOND
     1    15    16    1
     2    16    14    1
     3     5    14    1
     4     6    12   ar
     5     7     3    1
     6     7    13   ar
     7     1    17    1
     8    18    19   ar
     9    20    23    1
    10    20    21   ar
    11    24    23    1
    12    24    25    1
    13    24    26    1
    14    22    17   ar
    15     8    13   ar
    16     8     6   ar
    17     9    10   ar
    18    11     5   ar
    19     3     1   am
    20     5     6   ar
    21     7    12   ar
    22     1     2    2
    23    17    18   ar
    24    19    20   ar
    25    21    22   ar
    26     8     9   ar
    27    10    11   ar
    28     3     4    1
@<TRIPOS>MOLECULE
MolPort-002-566-700 ChemDiv-4190-0054 LN00531081 PubChem-1920789
 26 28 0 0 0
SMALL
GASTEIGER

@<TRIPOS>ATOM
      1 C          10.5690   40.9095   11.0608 C.2     1  UNL1        0.2509
      2 O          10.9571   41.1621   12.2334 O.2     1  UNL1       -0.2698
      3 N          11.4784   40.3721   10.0899 N.am    1  UNL1       -0.2606
      4 H          11.1141   40.1968    9.1922 H       1  UNL1        0.1571
      5 C          16.2746   40.6558    9.3985 C.ar    1  UNL1        0.1566
      6 C          15.0677   40.2180    9.9527 C.ar    1  UNL1        0.1230
      7 C          12.8629   40.0646   10.2938 C.ar    1  UNL1        0.1659
      8 C          15.0614   39.2543   10.9503 C.ar    1  UNL1        0.0527
      9 C          16.2321   38.6853   11.4426 C.ar    1  UNL1        0.0083
     10 C          17.4507   39.1161   10.8974 C.ar    1  UNL1        0.0037
     11 C          17.4737   40.0932    9.8845 C.ar    1  UNL1        0.0385
     12 N          13.8425   40.6731    9.5830 N.ar    1  UNL1       -0.2208
     13 S          13.4787   38.9395   11.4069 S.2     1  UNL1       -0.0513
     14 O          16.2680   41.6320    8.3941 O.3     1  UNL1       -0.4739
     15 C          17.3730   43.7761    8.5075 C.3     1  UNL1        0.0512
     16 C          17.4305   42.3494    7.9932 C.3     1  UNL1        0.2056
     17 C           9.1681   41.1686   10.6836 C.ar    1  UNL1        0.0539
     18 C           8.2136   41.4673   11.6659 C.ar    1  UNL1        0.0076
     19 C           6.8846   41.7138   11.3098 C.ar    1  UNL1        0.0370
     20 C           6.4923   41.6657    9.9689 C.ar    1  UNL1        0.1384
     21 C           7.4453   41.3653    8.9828 C.ar    1  UNL1        0.0370
     22 C           8.7739   41.1191    9.3389 C.ar    1  UNL1        0.0076
     23 O           5.1538   41.9146    9.6457 O.3     1  UNL1       -0.4792
     24 C           4.1111   40.9686    9.8559 C.3     1  UNL1        0.1661
     25 C           2.7604   41.6351    9.6728 C.3     1  UNL1        0.0472
     26 C           4.2065   40.4226   11.2647 C.3     1  UNL1        0.0472
@<TRIPOS>BOND
     1    15    16    1
     2    16    14    1
     3     5    14    1
     4     6    12   ar
     5     7     3    1
     6     7    13   ar
     7     1    17    1
     8    18    19   ar
     9    20    23    1
    10    20    21   ar
    11    24    23    1
    12    24    25    1
    13    24    26    1
    14    22    17   ar
    15     8    13   ar
    16     8     6   ar
    17     9    10   ar
    18    11     5   ar
    19     3     1   am
    20     5     6   ar
    21     7    12   ar
    22     1     2    2
    23    17    18   ar
    24    19    20   ar
    25    21    22   ar
    26     8     9   ar
    27    10    11   ar
    28     3     4    1
@<TRIPOS>MOLECULE
MolPort-002-566-700 ChemDiv-4190-0054 LN00531081 PubChem-1920789
 26 28 0 0 0
SMALL
GASTEIGER

@<TRIPOS>ATOM
      1 C           7.6557   41.2867    7.9864 C.2     1  UNL1        0.2509
      2 O           7.6673   42.5259    8.2178 O.2     1  UNL1       -0.2698
      3 N           6.6978   40.4325    8.6277 N.am    1  UNL1       -0.2606
      4 H           6.7409   39.4744    8.4052 H       1  UNL1        0.1571
      5 C           2.8644   42.9088   10.2813 C.ar    1  UNL1        0.1566
      6 C           3.9171   41.9884   10.2926 C.ar    1  UNL1        0.1230
      7 C           5.6850   40.8319    9.5591 C.ar    1  UNL1        0.1659
      8 C           4.1544   41.2062   11.4134 C.ar    1  UNL1        0.0527
      9 C           3.3724   41.2939   12.5611 C.ar    1  UNL1        0.0083
     10 C           2.3115   42.2117   12.5637 C.ar    1  UNL1        0.0037
     11 C           2.0578   43.0126   11.4343 C.ar    1  UNL1        0.0385
     12 N           4.7693   41.7827    9.2551 N.ar    1  UNL1       -0.2208
     13 S           5.4728   40.2106   11.1253 S.2     1  UNL1       -0.0513
     14 O           2.6328   43.6903    9.1423 O.3     1  UNL1       -0.4739
     15 C           3.0842   45.4374    7.5377 C.3     1  UNL1        0.0512
     16 C           3.6684   44.3537    8.4252 C.3     1  UNL1        0.2056
     17 C           8.6352   40.7099    7.0485 C.ar    1  UNL1        0.0539
     18 C           9.4448   41.5458    6.2667 C.ar    1  UNL1        0.0076
     19 C          10.3746   41.0003    5.3769 C.ar    1  UNL1        0.0370
     20 C          10.5081   39.6139    5.2570 C.ar    1  UNL1        0.1384
     21 C           9.6977   38.7739    6.0371 C.ar    1  UNL1        0.0370
     22 C           8.7684   39.3193    6.9268 C.ar    1  UNL1        0.0076
     23 O          11.4462   39.0995    4.3552 O.3     1  UNL1       -0.4792
     24 C          11.0887   38.3442    3.2028 C.3     1  UNL1        0.1661
     25 C           9.8791   38.9653    2.5294 C.3     1  UNL1        0.0472
     26 C          10.7514   36.9277    3.6170 C.3     1  UNL1        0.0472
@<TRIPOS>BOND
     1    15    16    1
     2    16    14    1
     3     5    14    1
     4     6    12   ar
     5     7     3    1
     6     7    13   ar
     7     1    17    1
     8    18    19   ar
     9    20    23    1
    10    20    21   ar
    11    24    23    1
    12    24    25    1
    13    24    26    1
    14    22    17   ar
    15     8    13   ar
    16     8     6   ar
    17     9    10   ar
    18    11     5   ar
    19     3     1   am
    20     5     6   ar
    21     7    12   ar
    22     1     2    2
    23    17    18   ar
    24    19    20   ar
    25    21    22   ar
    26     8     9   ar
    27    10    11   ar
    28     3     4    1
