@<TRIPOS>MOLECULE
MolPort-007-595-937 CSSS00025689140 MCULE-2591272368 PubChem-22423742
 21 22 0 0 0
SMALL
GASTEIGER

@<TRIPOS>ATOM
      1 C          13.6709   42.7511    6.7368 C.2     1  UNL1        0.2518
      2 O          13.2240   43.7266    6.0738 O.2     1  UNL1       -0.2697
      3 N          12.8243   41.6299    7.0207 N.am    1  UNL1       -0.2594
      4 H          13.2068   40.9142    7.5782 H       1  UNL1        0.1571
      5 C          15.0598   42.8053    7.2544 C.ar    1  UNL1        0.0643
      6 C          15.9810   43.8345    6.9296 C.ar    1  UNL1        0.0620
      7 C          17.2773   43.7978    7.4552 C.ar    1  UNL1        0.0115
      8 C          17.6754   42.7605    8.2986 C.ar    1  UNL1        0.0009
      9 C          16.7743   41.7508    8.6312 C.ar    1  UNL1        0.0002
     10 C          15.4780   41.7761    8.1142 C.ar    1  UNL1        0.0054
     11 CL         15.5738   45.2255    5.9337 Cl      1  UNL1       -0.0821
     12 C           9.2342   41.5775    6.6116 C.ar    1  UNL1        0.1514
     13 C          11.4763   41.4496    6.5723 C.ar    1  UNL1        0.1845
     14 N           9.3270   40.9071    5.4293 N.ar    1  UNL1       -0.1917
     15 N          10.4023   41.8900    7.2565 N.ar    1  UNL1       -0.2076
     16 S          10.9564   40.6883    5.1875 S.2     1  UNL1        0.0492
     17 C           7.9065   41.9729    7.1660 C.3     1  UNL1        0.0956
     18 C           6.2984   43.8479    7.0279 C.3     1  UNL1        0.0322
     19 C           7.1788   42.9164    6.2225 C.3     1  UNL1        0.1182
     20 O           6.3854   42.1870    5.3363 O.3     1  UNL1       -0.3840
     21 H           5.7319   41.6726    5.8356 H       1  UNL1        0.2104
@<TRIPOS>BOND
     1    19    18    1
     2    19    20    1
     3    19    17    1
     4    17    12    1
     5    12    15   ar
     6    13    16   ar
     7    13     3    1
     8     1     5    1
     9     6    11    1
    10     6     7   ar
    11     8     9   ar
    12    10     5   ar
    13    14    16   ar
    14     3     1   am
    15    12    14   ar
    16    13    15   ar
    17     1     2    2
    18     5     6   ar
    19     7     8   ar
    20     9    10   ar
    21    20    21    1
    22     3     4    1
@<TRIPOS>MOLECULE
MolPort-007-595-937 CSSS00025689140 MCULE-2591272368 PubChem-22423742
 21 22 0 0 0
SMALL
GASTEIGER

@<TRIPOS>ATOM
      1 C          13.7360   42.7658    6.6187 C.2     1  UNL1        0.2518
      2 O          13.2792   43.7427    5.9647 O.2     1  UNL1       -0.2697
      3 N          12.8911   41.6482    6.9214 N.am    1  UNL1       -0.2594
      4 H          13.2824   40.9313    7.4711 H       1  UNL1        0.1571
      5 C          15.1359   42.8145    7.1066 C.ar    1  UNL1        0.0643
      6 C          15.6606   41.9275    8.0819 C.ar    1  UNL1        0.0620
      7 C          16.9922   42.0552    8.4924 C.ar    1  UNL1        0.0115
      8 C          17.8130   43.0448    7.9512 C.ar    1  UNL1        0.0009
      9 C          17.3092   43.9139    6.9854 C.ar    1  UNL1        0.0002
     10 C          15.9829   43.7966    6.5668 C.ar    1  UNL1        0.0054
     11 CL         14.7435   40.6015    8.7843 Cl      1  UNL1       -0.0821
     12 C           9.2931   41.6156    6.5859 C.ar    1  UNL1        0.1514
     13 C          11.5331   41.4733    6.5018 C.ar    1  UNL1        0.1845
     14 N           9.3576   40.9360    5.4069 N.ar    1  UNL1       -0.1917
     15 N          10.4761   41.9254    7.2045 N.ar    1  UNL1       -0.2076
     16 S          10.9803   40.7052    5.1336 S.2     1  UNL1        0.0492
     17 C           7.9795   42.0235    7.1642 C.3     1  UNL1        0.0956
     18 C           6.3271   43.8534    6.9597 C.3     1  UNL1        0.0322
     19 C           7.1948   42.8832    6.1869 C.3     1  UNL1        0.1182
     20 O           6.3830   42.0775    5.3878 O.3     1  UNL1       -0.3840
     21 H           5.7610   41.5880    5.9486 H       1  UNL1        0.2104
@<TRIPOS>BOND
     1    19    18    1
     2    19    20    1
     3    19    17    1
     4    17    12    1
     5    12    15   ar
     6    13    16   ar
     7    13     3    1
     8     1     5    1
     9     6    11    1
    10     6     7   ar
    11     8     9   ar
    12    10     5   ar
    13    14    16   ar
    14     3     1   am
    15    12    14   ar
    16    13    15   ar
    17     1     2    2
    18     5     6   ar
    19     7     8   ar
    20     9    10   ar
    21    20    21    1
    22     3     4    1
@<TRIPOS>MOLECULE
MolPort-007-595-937 CSSS00025689140 MCULE-2591272368 PubChem-22423742
 21 22 0 0 0
SMALL
GASTEIGER

@<TRIPOS>ATOM
      1 C          14.0705   42.0167    7.5673 C.2     1  UNL1        0.2518
      2 O          13.8877   41.2502    8.5522 O.2     1  UNL1       -0.2697
      3 N          13.0232   42.2144    6.6090 N.am    1  UNL1       -0.2594
      4 H          13.2306   42.7876    5.8360 H       1  UNL1        0.1571
      5 C          15.3926   42.6661    7.3933 C.ar    1  UNL1        0.0643
      6 C          15.6205   43.7679    6.5286 C.ar    1  UNL1        0.0620
      7 C          16.9057   44.3098    6.4177 C.ar    1  UNL1        0.0115
      8 C          17.9681   43.7806    7.1507 C.ar    1  UNL1        0.0009
      9 C          17.7517   42.7051    8.0101 C.ar    1  UNL1        0.0002
     10 C          16.4742   42.1558    8.1303 C.ar    1  UNL1        0.0054
     11 CL         14.3491   44.5608    5.6080 Cl      1  UNL1       -0.0821
     12 C           9.8720   40.5680    5.9622 C.ar    1  UNL1        0.1514
     13 C          11.7045   41.6590    6.6669 C.ar    1  UNL1        0.1845
     14 N           9.3944   40.8837    7.1984 N.ar    1  UNL1       -0.1917
     15 N          11.1407   40.9803    5.6485 N.ar    1  UNL1       -0.2076
     16 S          10.6234   41.7303    7.9293 S.2     1  UNL1        0.0492
     17 C           9.0459   39.7826    4.9993 C.3     1  UNL1        0.0956
     18 C           9.5012   38.5786    2.8865 C.3     1  UNL1        0.0322
     19 C           9.8631   38.6760    4.3532 C.3     1  UNL1        0.1182
     20 O           9.5913   37.4568    4.9749 O.3     1  UNL1       -0.3840
     21 H           8.6483   37.2494    4.8817 H       1  UNL1        0.2104
@<TRIPOS>BOND
     1    19    18    1
     2    19    20    1
     3    19    17    1
     4    17    12    1
     5    12    15   ar
     6    13    16   ar
     7    13     3    1
     8     1     5    1
     9     6    11    1
    10     6     7   ar
    11     8     9   ar
    12    10     5   ar
    13    14    16   ar
    14     3     1   am
    15    12    14   ar
    16    13    15   ar
    17     1     2    2
    18     5     6   ar
    19     7     8   ar
    20     9    10   ar
    21    20    21    1
    22     3     4    1
@<TRIPOS>MOLECULE
MolPort-007-595-937 CSSS00025689140 MCULE-2591272368 PubChem-22423742
 21 22 0 0 0
SMALL
GASTEIGER

@<TRIPOS>ATOM
      1 C          12.5773   41.6992    6.5460 C.2     1  UNL1        0.2518
      2 O          12.1903   41.1779    7.6274 O.2     1  UNL1       -0.2697
      3 N          11.8943   41.4005    5.3219 N.am    1  UNL1       -0.2594
      4 H          12.2616   41.7981    4.4995 H       1  UNL1        0.1571
      5 C          13.7705   42.5802    6.5553 C.ar    1  UNL1        0.0643
      6 C          14.8974   42.3700    7.3915 C.ar    1  UNL1        0.0620
      7 C          15.9750   43.2612    7.3421 C.ar    1  UNL1        0.0115
      8 C          15.9561   44.3552    6.4768 C.ar    1  UNL1        0.0009
      9 C          14.8579   44.5639    5.6445 C.ar    1  UNL1        0.0002
     10 C          13.7769   43.6819    5.6837 C.ar    1  UNL1        0.0054
     11 CL         15.0637   40.9920    8.4712 Cl      1  UNL1       -0.0821
     12 C           8.7936   39.5945    5.7505 C.ar    1  UNL1        0.1514
     13 C          10.7293   40.5800    5.1788 C.ar    1  UNL1        0.1845
     14 N           8.8814   39.0459    4.5066 N.ar    1  UNL1       -0.1917
     15 N           9.7958   40.4439    6.1408 N.ar    1  UNL1       -0.2076
     16 S          10.2922   39.6506    3.8700 S.2     1  UNL1        0.0492
     17 C           7.6342   39.2940    6.6403 C.3     1  UNL1        0.0956
     18 C           6.1789   40.9147    7.8136 C.3     1  UNL1        0.0322
     19 C           6.5291   40.3226    6.4651 C.3     1  UNL1        0.1182
     20 O           5.3957   39.7174    5.9213 O.3     1  UNL1       -0.3840
     21 H           5.0852   39.0179    6.5173 H       1  UNL1        0.2104
@<TRIPOS>BOND
     1    19    18    1
     2    19    20    1
     3    19    17    1
     4    17    12    1
     5    12    15   ar
     6    13    16   ar
     7    13     3    1
     8     1     5    1
     9     6    11    1
    10     6     7   ar
    11     8     9   ar
    12    10     5   ar
    13    14    16   ar
    14     3     1   am
    15    12    14   ar
    16    13    15   ar
    17     1     2    2
    18     5     6   ar
    19     7     8   ar
    20     9    10   ar
    21    20    21    1
    22     3     4    1
@<TRIPOS>MOLECULE
MolPort-007-595-937 CSSS00025689140 MCULE-2591272368 PubChem-22423742
 21 22 0 0 0
SMALL
GASTEIGER

@<TRIPOS>ATOM
      1 C          15.8745   41.5423    8.3612 C.2     1  UNL1        0.2518
      2 O          17.0744   41.3180    8.6789 O.2     1  UNL1       -0.2697
      3 N          14.8319   40.6907    8.8531 N.am    1  UNL1       -0.2594
      4 H          13.9178   40.8818    8.5414 H       1  UNL1        0.1571
      5 C          15.5690   42.6633    7.4393 C.ar    1  UNL1        0.0643
      6 C          16.4213   43.7820    7.2510 C.ar    1  UNL1        0.0620
      7 C          16.0457   44.8007    6.3684 C.ar    1  UNL1        0.0115
      8 C          14.8418   44.7286    5.6675 C.ar    1  UNL1        0.0009
      9 C          14.0031   43.6288    5.8384 C.ar    1  UNL1        0.0002
     10 C          14.3665   42.6055    6.7153 C.ar    1  UNL1        0.0054
     11 CL         17.9909   43.9501    8.0260 Cl      1  UNL1       -0.0821
     12 C          14.4104   37.7842   10.9589 C.ar    1  UNL1        0.1514
     13 C          14.9907   39.5887    9.7537 C.ar    1  UNL1        0.1845
     14 N          15.7094   37.8278   11.3671 N.ar    1  UNL1       -0.1917
     15 N          13.9932   38.7396   10.0693 N.ar    1  UNL1       -0.2076
     16 S          16.3628   39.1365   10.5787 S.2     1  UNL1        0.0492
     17 C          13.4883   36.7188   11.4497 C.3     1  UNL1        0.0956
     18 C          14.0495   35.3518    9.4655 C.3     1  UNL1        0.0322
     19 C          12.9149   35.9162   10.2935 C.3     1  UNL1        0.1182
     20 O          12.1237   36.7369    9.4889 O.3     1  UNL1       -0.3840
     21 H          12.6642   37.4603    9.1346 H       1  UNL1        0.2104
@<TRIPOS>BOND
     1    19    18    1
     2    19    20    1
     3    19    17    1
     4    17    12    1
     5    12    15   ar
     6    13    16   ar
     7    13     3    1
     8     1     5    1
     9     6    11    1
    10     6     7   ar
    11     8     9   ar
    12    10     5   ar
    13    14    16   ar
    14     3     1   am
    15    12    14   ar
    16    13    15   ar
    17     1     2    2
    18     5     6   ar
    19     7     8   ar
    20     9    10   ar
    21    20    21    1
    22     3     4    1
@<TRIPOS>MOLECULE
MolPort-007-595-937 CSSS00025689140 MCULE-2591272368 PubChem-22423742
 21 22 0 0 0
SMALL
GASTEIGER

@<TRIPOS>ATOM
      1 C          13.5895   42.1496    7.2265 C.2     1  UNL1        0.2518
      2 O          13.1125   42.1365    6.0590 O.2     1  UNL1       -0.2697
      3 N          12.7513   41.8378    8.3465 N.am    1  UNL1       -0.2594
      4 H          13.1601   41.9043    9.2397 H       1  UNL1        0.1571
      5 C          15.0077   42.5372    7.4230 C.ar    1  UNL1        0.0643
      6 C          15.6139   43.6522    6.7885 C.ar    1  UNL1        0.0620
      7 C          16.9638   43.9360    7.0233 C.ar    1  UNL1        0.0115
      8 C          17.7222   43.1356    7.8777 C.ar    1  UNL1        0.0009
      9 C          17.1327   42.0443    8.5132 C.ar    1  UNL1        0.0002
     10 C          15.7868   41.7509    8.2879 C.ar    1  UNL1        0.0054
     11 CL         14.7436   44.7700    5.7465 Cl      1  UNL1       -0.0821
     12 C           9.5802   40.2365    7.6835 C.ar    1  UNL1        0.1514
     13 C          11.3770   41.4389    8.2926 C.ar    1  UNL1        0.1845
     14 N           8.9113   41.1153    8.4811 N.ar    1  UNL1       -0.1917
     15 N          10.9369   40.3922    7.5672 N.ar    1  UNL1       -0.2076
     16 S          10.0806   42.1436    9.0611 S.2     1  UNL1        0.0492
     17 C           8.8581   39.1344    6.9835 C.3     1  UNL1        0.0956
     18 C           6.5543   39.5639    6.1906 C.3     1  UNL1        0.0322
     19 C           8.0215   39.6719    5.8341 C.3     1  UNL1        0.1182
     20 O           8.2683   38.9319    4.6773 O.3     1  UNL1       -0.3840
     21 H           8.0346   38.0032    4.8314 H       1  UNL1        0.2104
@<TRIPOS>BOND
     1    19    18    1
     2    19    20    1
     3    19    17    1
     4    17    12    1
     5    12    15   ar
     6    13    16   ar
     7    13     3    1
     8     1     5    1
     9     6    11    1
    10     6     7   ar
    11     8     9   ar
    12    10     5   ar
    13    14    16   ar
    14     3     1   am
    15    12    14   ar
    16    13    15   ar
    17     1     2    2
    18     5     6   ar
    19     7     8   ar
    20     9    10   ar
    21    20    21    1
    22     3     4    1
@<TRIPOS>MOLECULE
MolPort-007-595-937 CSSS00025689140 MCULE-2591272368 PubChem-22423742
 21 22 0 0 0
SMALL
GASTEIGER

@<TRIPOS>ATOM
      1 C          14.0880   41.7667    7.8707 C.2     1  UNL1        0.2518
      2 O          14.1234   40.5758    8.2849 O.2     1  UNL1       -0.2697
      3 N          12.8279   42.4250    7.6894 N.am    1  UNL1       -0.2594
      4 H          12.8523   43.3386    7.3232 H       1  UNL1        0.1571
      5 C          15.3592   42.4515    7.5315 C.ar    1  UNL1        0.0643
      6 C          15.4768   43.4336    6.5141 C.ar    1  UNL1        0.0620
      7 C          16.7208   44.0190    6.2540 C.ar    1  UNL1        0.0115
      8 C          17.8493   43.6497    6.9863 C.ar    1  UNL1        0.0009
      9 C          17.7413   42.6934    7.9942 C.ar    1  UNL1        0.0002
     10 C          16.5059   42.1025    8.2640 C.ar    1  UNL1        0.0054
     11 CL         14.1147   44.0273    5.5734 Cl      1  UNL1       -0.0821
     12 C           9.5579   41.6717    9.0308 C.ar    1  UNL1        0.1514
     13 C          11.5367   41.8831    7.9892 C.ar    1  UNL1        0.1845
     14 N           9.3926   40.6229    8.1771 N.ar    1  UNL1       -0.1917
     15 N          10.7268   42.3817    8.9437 N.ar    1  UNL1       -0.2076
     16 S          10.7877   40.5803    7.2754 S.2     1  UNL1        0.0492
     17 C           8.4911   42.0409   10.0065 C.3     1  UNL1        0.0956
     18 C           9.6630   41.1440   11.9922 C.3     1  UNL1        0.0322
     19 C           9.0858   42.3925   11.3602 C.3     1  UNL1        0.1182
     20 O           8.0969   42.9143   12.1949 O.3     1  UNL1       -0.3840
     21 H           7.3969   42.2543   12.3186 H       1  UNL1        0.2104
@<TRIPOS>BOND
     1    19    18    1
     2    19    20    1
     3    19    17    1
     4    17    12    1
     5    12    15   ar
     6    13    16   ar
     7    13     3    1
     8     1     5    1
     9     6    11    1
    10     6     7   ar
    11     8     9   ar
    12    10     5   ar
    13    14    16   ar
    14     3     1   am
    15    12    14   ar
    16    13    15   ar
    17     1     2    2
    18     5     6   ar
    19     7     8   ar
    20     9    10   ar
    21    20    21    1
    22     3     4    1
@<TRIPOS>MOLECULE
MolPort-007-595-937 CSSS00025689140 MCULE-2591272368 PubChem-22423742
 21 22 0 0 0
SMALL
GASTEIGER

@<TRIPOS>ATOM
      1 C          10.4859   42.6146    9.1973 C.2     1  UNL1        0.2518
      2 O          11.0901   43.3989    9.9788 O.2     1  UNL1       -0.2697
      3 N          11.2031   41.9606    8.1427 N.am    1  UNL1       -0.2594
      4 H          10.6779   41.3925    7.5339 H       1  UNL1        0.1571
      5 C           9.0242   42.4200    9.3571 C.ar    1  UNL1        0.0643
      6 C           8.4331   41.7825   10.4786 C.ar    1  UNL1        0.0620
      7 C           7.0434   41.6313   10.5392 C.ar    1  UNL1        0.0115
      8 C           6.2295   42.1031    9.5091 C.ar    1  UNL1        0.0009
      9 C           6.8004   42.7396    8.4086 C.ar    1  UNL1        0.0002
     10 C           8.1853   42.8973    8.3364 C.ar    1  UNL1        0.0054
     11 CL          9.3491   41.2090   11.8658 Cl      1  UNL1       -0.0821
     12 C          14.5312   42.9097    7.1024 C.ar    1  UNL1        0.1514
     13 C          12.6093   42.0533    7.8886 C.ar    1  UNL1        0.1845
     14 N          15.0808   41.7998    7.6698 N.ar    1  UNL1       -0.1917
     15 N          13.1750   43.0727    7.2130 N.ar    1  UNL1       -0.2076
     16 S          13.7983   40.9785    8.3346 S.2     1  UNL1        0.0492
     17 C          15.3844   43.9174    6.4074 C.3     1  UNL1        0.0956
     18 C          17.5058   44.1121    7.6654 C.3     1  UNL1        0.0322
     19 C          16.8485   43.5111    6.4414 C.3     1  UNL1        0.1182
     20 O          17.4990   43.9743    5.2971 O.3     1  UNL1       -0.3840
     21 H          17.4399   44.9418    5.2609 H       1  UNL1        0.2104
@<TRIPOS>BOND
     1    19    18    1
     2    19    20    1
     3    19    17    1
     4    17    12    1
     5    12    15   ar
     6    13    16   ar
     7    13     3    1
     8     1     5    1
     9     6    11    1
    10     6     7   ar
    11     8     9   ar
    12    10     5   ar
    13    14    16   ar
    14     3     1   am
    15    12    14   ar
    16    13    15   ar
    17     1     2    2
    18     5     6   ar
    19     7     8   ar
    20     9    10   ar
    21    20    21    1
    22     3     4    1
@<TRIPOS>MOLECULE
MolPort-007-595-937 CSSS00025689140 MCULE-2591272368 PubChem-22423742
 21 22 0 0 0
SMALL
GASTEIGER

@<TRIPOS>ATOM
      1 C          15.0073   41.2479    8.6955 C.2     1  UNL1        0.2518
      2 O          15.5445   40.3168    9.3553 O.2     1  UNL1       -0.2697
      3 N          13.5800   41.3158    8.5836 N.am    1  UNL1       -0.2594
      4 H          13.2119   42.0360    8.0223 H       1  UNL1        0.1571
      5 C          15.8718   42.2346    8.0034 C.ar    1  UNL1        0.0643
      6 C          15.4833   42.9373    6.8335 C.ar    1  UNL1        0.0620
      7 C          16.3703   43.8421    6.2398 C.ar    1  UNL1        0.0115
      8 C          17.6341   44.0643    6.7869 C.ar    1  UNL1        0.0009
      9 C          18.0204   43.3864    7.9415 C.ar    1  UNL1        0.0002
     10 C          17.1447   42.4817    8.5438 C.ar    1  UNL1        0.0054
     11 CL         13.8947   42.7907    6.0935 Cl      1  UNL1       -0.0821
     12 C          11.5797   38.5130    9.6805 C.ar    1  UNL1        0.1514
     13 C          12.6373   40.4377    9.2090 C.ar    1  UNL1        0.1845
     14 N          10.8378   39.3004   10.5085 N.ar    1  UNL1       -0.1917
     15 N          12.5771   39.1151    8.9588 N.ar    1  UNL1       -0.2076
     16 S          11.4596   40.8293   10.3169 S.2     1  UNL1        0.0492
     17 C          11.3240   37.0461    9.5857 C.3     1  UNL1        0.0956
     18 C          13.3425   35.7098   10.0965 C.3     1  UNL1        0.0322
     19 C          12.0687   36.2895   10.6733 C.3     1  UNL1        0.1182
     20 O          11.2736   35.2530   11.1636 O.3     1  UNL1       -0.3840
     21 H          11.0595   34.6408   10.4423 H       1  UNL1        0.2104
@<TRIPOS>BOND
     1    19    18    1
     2    19    20    1
     3    19    17    1
     4    17    12    1
     5    12    15   ar
     6    13    16   ar
     7    13     3    1
     8     1     5    1
     9     6    11    1
    10     6     7   ar
    11     8     9   ar
    12    10     5   ar
    13    14    16   ar
    14     3     1   am
    15    12    14   ar
    16    13    15   ar
    17     1     2    2
    18     5     6   ar
    19     7     8   ar
    20     9    10   ar
    21    20    21    1
    22     3     4    1
@<TRIPOS>MOLECULE
MolPort-007-595-937 CSSS00025689140 MCULE-2591272368 PubChem-22423742
 21 22 0 0 0
SMALL
GASTEIGER

@<TRIPOS>ATOM
      1 C          10.3798   41.0644    7.9310 C.2     1  UNL1        0.2518
      2 O          10.6875   41.0408    9.1540 O.2     1  UNL1       -0.2697
      3 N          11.3598   41.4339    6.9526 N.am    1  UNL1       -0.2594
      4 H          11.0583   41.4790    6.0165 H       1  UNL1        0.1571
      5 C           8.9859   40.7533    7.5308 C.ar    1  UNL1        0.0643
      6 C           8.6495   39.8656    6.4761 C.ar    1  UNL1        0.0620
      7 C           7.3053   39.6408    6.1594 C.ar    1  UNL1        0.0115
      8 C           6.2890   40.2784    6.8712 C.ar    1  UNL1        0.0009
      9 C           6.6096   41.1440    7.9152 C.ar    1  UNL1        0.0002
     10 C           7.9467   41.3762    8.2417 C.ar    1  UNL1        0.0054
     11 CL          9.8388   38.9549    5.5549 Cl      1  UNL1       -0.0821
     12 C          14.6635   42.8910    7.1020 C.ar    1  UNL1        0.1514
     13 C          12.7351   41.7439    7.2044 C.ar    1  UNL1        0.1845
     14 N          15.1321   41.8760    7.8805 N.ar    1  UNL1       -0.1917
     15 N          13.3480   42.8421    6.7210 N.ar    1  UNL1       -0.2076
     16 S          13.8321   40.8629    8.0923 S.2     1  UNL1        0.0492
     17 C          15.5505   44.0222    6.7021 C.3     1  UNL1        0.0956
     18 C          17.8468   44.0641    7.6220 C.3     1  UNL1        0.0322
     19 C          16.9797   43.5491    6.4931 C.3     1  UNL1        0.1182
     20 O          17.4701   44.0335    5.2800 O.3     1  UNL1       -0.3840
     21 H          17.4561   45.0034    5.2897 H       1  UNL1        0.2104
@<TRIPOS>BOND
     1    19    18    1
     2    19    20    1
     3    19    17    1
     4    17    12    1
     5    12    15   ar
     6    13    16   ar
     7    13     3    1
     8     1     5    1
     9     6    11    1
    10     6     7   ar
    11     8     9   ar
    12    10     5   ar
    13    14    16   ar
    14     3     1   am
    15    12    14   ar
    16    13    15   ar
    17     1     2    2
    18     5     6   ar
    19     7     8   ar
    20     9    10   ar
    21    20    21    1
    22     3     4    1
