@<TRIPOS>MOLECULE
MolPort-007-714-528 ChemDiv-E002-1850 MCULE-6371993484 PubChem-22510837 ZINC000006792968 ZINC06792968
 28 29 0 0 0
SMALL
GASTEIGER

@<TRIPOS>ATOM
      1 C           6.4194   41.8026    9.5209 C.ar    1  UNL1        0.1868
      2 C           8.7756   41.3839    9.5295 C.ar    1  UNL1        0.1904
      3 N           6.9923   42.0073   10.7294 N.ar    1  UNL1       -0.1242
      4 N           8.3034   41.7743   10.7343 N.ar    1  UNL1       -0.1240
      5 S           7.5566   41.3085    8.3727 S.2     1  UNL1       -0.0154
      6 C          10.8566   41.4457    8.0775 C.2     1  UNL1        0.3062
      7 N          10.1467   41.0741    9.2630 N.am    1  UNL1       -0.2470
      8 N          12.2256   41.0613    7.9384 N.am    1  UNL1       -0.2846
      9 O          10.2880   42.1078    7.1672 O.2     1  UNL1       -0.2524
     10 H          10.6395   40.5665    9.9477 H       1  UNL1        0.1584
     11 H          12.6565   40.5789    8.6806 H       1  UNL1        0.1513
     12 C          13.0121   41.3517    6.7470 C.3     1  UNL1        0.1177
     13 C          14.3033   41.9984    7.1196 C.ar    1  UNL1       -0.0025
     14 C          15.1168   41.4214    8.1009 C.ar    1  UNL1       -0.0029
     15 C          16.3211   42.0337    8.4612 C.ar    1  UNL1       -0.0045
     16 C          16.7127   43.2247    7.8417 C.ar    1  UNL1       -0.0219
     17 C          17.9925   43.8753    8.2249 C.3     1  UNL1        0.0310
     18 C          15.8995   43.8041    6.8628 C.ar    1  UNL1       -0.0045
     19 C          14.6950   43.1920    6.5024 C.ar    1  UNL1       -0.0029
     20 N           5.0191   41.9936    9.2667 N.pl3   1  UNL1       -0.2868
     21 C           4.1163   40.8478    9.2593 C.3     1  UNL1        0.0926
     22 C           2.7746   42.1000   10.9188 C.3     1  UNL1        0.0018
     23 C           3.3520   40.7452   10.5694 C.3     1  UNL1        0.0198
     24 C           4.2795   40.2975   11.6824 C.3     1  UNL1        0.0018
     25 C           4.4461   43.3366    9.2379 C.3     1  UNL1        0.0926
     26 C           4.9129   44.1078    8.0114 C.3     1  UNL1        0.0198
     27 C           3.8910   45.1583    7.6255 C.3     1  UNL1        0.0018
     28 C           6.2294   44.7877    8.3207 C.3     1  UNL1        0.0018
@<TRIPOS>BOND
     1    22    23    1
     2    23    24    1
     3    23    21    1
     4    21    20    1
     5    25    20    1
     6    25    26    1
     7    26    27    1
     8    26    28    1
     9     1     5   ar
    10     2     7    1
    11     2     5   ar
    12     6     8   am
    13    12     8    1
    14    12    13    1
    15    14    15   ar
    16    16    18   ar
    17    17    16    1
    18    19    13   ar
    19    20     1    1
    20     3     4   ar
    21     7     6   am
    22     1     3   ar
    23     2     4   ar
    24     6     9    2
    25    13    14   ar
    26    15    16   ar
    27    18    19   ar
    28     7    10    1
    29     8    11    1
@<TRIPOS>MOLECULE
MolPort-007-714-528 ChemDiv-E002-1850 MCULE-6371993484 PubChem-22510837 ZINC000006792968 ZINC06792968
 28 29 0 0 0
SMALL
GASTEIGER

@<TRIPOS>ATOM
      1 C           6.6491   41.4115    9.3480 C.ar    1  UNL1        0.1868
      2 C           4.8184   41.3693   10.8886 C.ar    1  UNL1        0.1904
      3 N           5.5516   40.7934    8.8541 N.ar    1  UNL1       -0.1242
      4 N           4.5329   40.7698    9.7113 N.ar    1  UNL1       -0.1240
      5 S           6.3884   41.9725   10.9206 S.2     1  UNL1       -0.0154
      6 C           2.5971   42.0715   11.8963 C.2     1  UNL1        0.3062
      7 N           3.8990   41.4835   11.9788 N.am    1  UNL1       -0.2470
      8 N           1.7845   42.1275   13.0701 N.am    1  UNL1       -0.2846
      9 O           2.1659   42.5307   10.8037 O.2     1  UNL1       -0.2524
     10 H           4.1839   41.1306   12.8527 H       1  UNL1        0.1584
     11 H           2.1294   41.7268   13.9006 H       1  UNL1        0.1513
     12 C           0.4681   42.7512   13.0924 C.3     1  UNL1        0.1177
     13 C          -0.2487   42.4106   14.3551 C.ar    1  UNL1       -0.0025
     14 C           0.1326   43.0119   15.5596 C.ar    1  UNL1       -0.0029
     15 C          -0.5293   42.6835   16.7467 C.ar    1  UNL1       -0.0045
     16 C          -1.5724   41.7523   16.7310 C.ar    1  UNL1       -0.0219
     17 C          -2.2756   41.4034   17.9927 C.3     1  UNL1        0.0310
     18 C          -1.9528   41.1484   15.5286 C.ar    1  UNL1       -0.0045
     19 C          -1.2910   41.4765   14.3413 C.ar    1  UNL1       -0.0029
     20 N           7.8701   41.5661    8.6083 N.pl3   1  UNL1       -0.2868
     21 C           8.2195   42.8635    8.0402 C.3     1  UNL1        0.0926
     22 C           6.1645   43.8029    7.0319 C.3     1  UNL1        0.0018
     23 C           7.4763   43.1079    6.7368 C.3     1  UNL1        0.0198
     24 C           7.1960   41.7908    6.0396 C.3     1  UNL1        0.0018
     25 C           8.8756   40.5069    8.6052 C.3     1  UNL1        0.0926
     26 C          10.2211   41.0241    9.0943 C.3     1  UNL1        0.0198
     27 C          10.5830   40.3871   10.4209 C.3     1  UNL1        0.0018
     28 C          11.2869   40.6842    8.0747 C.3     1  UNL1        0.0018
@<TRIPOS>BOND
     1    22    23    1
     2    23    24    1
     3    23    21    1
     4    21    20    1
     5    25    20    1
     6    25    26    1
     7    26    27    1
     8    26    28    1
     9     1     5   ar
    10     2     7    1
    11     2     5   ar
    12     6     8   am
    13    12     8    1
    14    12    13    1
    15    14    15   ar
    16    16    18   ar
    17    17    16    1
    18    19    13   ar
    19    20     1    1
    20     3     4   ar
    21     7     6   am
    22     1     3   ar
    23     2     4   ar
    24     6     9    2
    25    13    14   ar
    26    15    16   ar
    27    18    19   ar
    28     7    10    1
    29     8    11    1
@<TRIPOS>MOLECULE
MolPort-007-714-528 ChemDiv-E002-1850 MCULE-6371993484 PubChem-22510837 ZINC000006792968 ZINC06792968
 28 29 0 0 0
SMALL
GASTEIGER

@<TRIPOS>ATOM
      1 C           7.5003   41.8370   10.2887 C.ar    1  UNL1        0.1868
      2 C           9.7053   41.2573   11.0158 C.ar    1  UNL1        0.1904
      3 N           7.5652   41.5387   11.6068 N.ar    1  UNL1       -0.1242
      4 N           8.7921   41.2160   12.0114 N.ar    1  UNL1       -0.1240
      5 S           9.0146   41.7083    9.5497 S.2     1  UNL1       -0.0154
      6 C          11.9534   40.4490   10.1581 C.2     1  UNL1        0.3062
      7 N          11.0943   40.9578   11.1831 N.am    1  UNL1       -0.2470
      8 N          13.3231   40.1855   10.4674 N.am    1  UNL1       -0.2846
      9 O          11.5140   40.2393    8.9948 O.2     1  UNL1       -0.2524
     10 H          11.4892   41.1138   12.0713 H       1  UNL1        0.1584
     11 H          13.6498   40.3948   11.3722 H       1  UNL1        0.1513
     12 C          14.2578   39.6208    9.5030 C.3     1  UNL1        0.1177
     13 C          15.1047   40.6944    8.9078 C.ar    1  UNL1       -0.0025
     14 C          16.4225   40.8686    9.3449 C.ar    1  UNL1       -0.0029
     15 C          17.2135   41.8834    8.7977 C.ar    1  UNL1       -0.0045
     16 C          16.6874   42.7263    7.8137 C.ar    1  UNL1       -0.0219
     17 C          17.5282   43.8047    7.2324 C.3     1  UNL1        0.0310
     18 C          15.3698   42.5553    7.3778 C.ar    1  UNL1       -0.0045
     19 C          14.5784   41.5406    7.9250 C.ar    1  UNL1       -0.0029
     20 N           6.2867   42.2192    9.6229 N.pl3   1  UNL1       -0.2868
     21 C           6.2731   42.3930    8.1746 C.3     1  UNL1        0.0926
     22 C           7.0760   44.6634    8.7423 C.3     1  UNL1        0.0018
     23 C           6.2003   43.8647    7.8010 C.3     1  UNL1        0.0198
     24 C           4.7716   44.3616    7.9083 C.3     1  UNL1        0.0018
     25 C           5.0144   42.2183   10.3399 C.3     1  UNL1        0.0926
     26 C           4.2341   40.9386   10.0746 C.3     1  UNL1        0.0198
     27 C           3.9992   40.1836   11.3674 C.3     1  UNL1        0.0018
     28 C           2.8979   41.2882    9.4554 C.3     1  UNL1        0.0018
@<TRIPOS>BOND
     1    22    23    1
     2    23    24    1
     3    23    21    1
     4    21    20    1
     5    25    20    1
     6    25    26    1
     7    26    27    1
     8    26    28    1
     9     1     5   ar
    10     2     7    1
    11     2     5   ar
    12     6     8   am
    13    12     8    1
    14    12    13    1
    15    14    15   ar
    16    16    18   ar
    17    17    16    1
    18    19    13   ar
    19    20     1    1
    20     3     4   ar
    21     7     6   am
    22     1     3   ar
    23     2     4   ar
    24     6     9    2
    25    13    14   ar
    26    15    16   ar
    27    18    19   ar
    28     7    10    1
    29     8    11    1
@<TRIPOS>MOLECULE
MolPort-007-714-528 ChemDiv-E002-1850 MCULE-6371993484 PubChem-22510837 ZINC000006792968 ZINC06792968
 28 29 0 0 0
SMALL
GASTEIGER

@<TRIPOS>ATOM
      1 C           7.5065   41.7700   10.0724 C.ar    1  UNL1        0.1868
      2 C           9.7279   41.3066   10.8323 C.ar    1  UNL1        0.1904
      3 N           7.6164   41.7577   11.4208 N.ar    1  UNL1       -0.1242
      4 N           8.8524   41.4998   11.8438 N.ar    1  UNL1       -0.1240
      5 S           8.9896   41.4513    9.3277 S.2     1  UNL1       -0.0154
      6 C          11.9973   40.5447    9.9884 C.2     1  UNL1        0.3062
      7 N          11.1174   41.0171   11.0131 N.am    1  UNL1       -0.2470
      8 N          13.3649   40.2870   10.3117 N.am    1  UNL1       -0.2846
      9 O          11.5779   40.3616    8.8133 O.2     1  UNL1       -0.2524
     10 H          11.4970   41.1533   11.9112 H       1  UNL1        0.1584
     11 H          13.6756   40.4754   11.2268 H       1  UNL1        0.1513
     12 C          14.3201   39.7579    9.3473 C.3     1  UNL1        0.1177
     13 C          15.1627   40.8561    8.7920 C.ar    1  UNL1       -0.0025
     14 C          14.6486   41.6988    7.8004 C.ar    1  UNL1       -0.0029
     15 C          15.4417   42.7202    7.2689 C.ar    1  UNL1       -0.0045
     16 C          16.7507   42.8993    7.7272 C.ar    1  UNL1       -0.0219
     17 C          17.5935   43.9849    7.1621 C.3     1  UNL1        0.0310
     18 C          17.2669   42.0563    8.7161 C.ar    1  UNL1       -0.0045
     19 C          16.4740   41.0346    9.2478 C.ar    1  UNL1       -0.0029
     20 N           6.2750   42.0301    9.3813 N.pl3   1  UNL1       -0.2868
     21 C           5.0309   42.1604   10.1319 C.3     1  UNL1        0.0926
     22 C           2.8016   41.3196    9.4647 C.3     1  UNL1        0.0018
     23 C           4.1674   40.9186    9.9792 C.3     1  UNL1        0.0198
     24 C           4.0106   40.2228   11.3174 C.3     1  UNL1        0.0018
     25 C           6.2793   42.3893    7.9658 C.3     1  UNL1        0.0926
     26 C           6.2039   43.8983    7.7807 C.3     1  UNL1        0.0198
     27 C           4.7803   44.3841    7.9644 C.3     1  UNL1        0.0018
     28 C           7.0929   44.5716    8.8041 C.3     1  UNL1        0.0018
@<TRIPOS>BOND
     1    22    23    1
     2    23    24    1
     3    23    21    1
     4    21    20    1
     5    25    20    1
     6    25    26    1
     7    26    27    1
     8    26    28    1
     9     1     5   ar
    10     2     7    1
    11     2     5   ar
    12     6     8   am
    13    12     8    1
    14    12    13    1
    15    14    15   ar
    16    16    18   ar
    17    17    16    1
    18    19    13   ar
    19    20     1    1
    20     3     4   ar
    21     7     6   am
    22     1     3   ar
    23     2     4   ar
    24     6     9    2
    25    13    14   ar
    26    15    16   ar
    27    18    19   ar
    28     7    10    1
    29     8    11    1
@<TRIPOS>MOLECULE
MolPort-007-714-528 ChemDiv-E002-1850 MCULE-6371993484 PubChem-22510837 ZINC000006792968 ZINC06792968
 28 29 0 0 0
SMALL
GASTEIGER

@<TRIPOS>ATOM
      1 C           6.3312   42.3466    9.0320 C.ar    1  UNL1        0.1868
      2 C           8.5982   41.6150    8.8040 C.ar    1  UNL1        0.1904
      3 N           6.4436   41.1416    8.4273 N.ar    1  UNL1       -0.1242
      4 N           7.7051   40.7344    8.3003 N.ar    1  UNL1       -0.1240
      5 S           7.8443   42.9742    9.4472 S.2     1  UNL1       -0.0154
      6 C          10.8593   41.5700    7.6514 C.2     1  UNL1        0.3062
      7 N          10.0154   41.4187    8.7970 N.am    1  UNL1       -0.2470
      8 N          12.2618   41.3332    7.7856 N.am    1  UNL1       -0.2846
      9 O          10.3775   41.9124    6.5374 O.2     1  UNL1       -0.2524
     10 H          10.4427   41.1598    9.6454 H       1  UNL1        0.1584
     11 H          12.6174   41.1052    8.6749 H       1  UNL1        0.1513
     12 C          13.1891   41.4143    6.6649 C.3     1  UNL1        0.1177
     13 C          14.4640   42.0614    7.0890 C.ar    1  UNL1       -0.0025
     14 C          15.2396   41.4826    8.0996 C.ar    1  UNL1       -0.0029
     15 C          16.4283   42.0952    8.5079 C.ar    1  UNL1       -0.0045
     16 C          16.8422   43.2883    7.9072 C.ar    1  UNL1       -0.0219
     17 C          18.1055   43.9391    8.3414 C.3     1  UNL1        0.0310
     18 C          16.0669   43.8694    6.8990 C.ar    1  UNL1       -0.0045
     19 C          14.8780   43.2570    6.4905 C.ar    1  UNL1       -0.0029
     20 N           5.0728   42.9905    9.2851 N.pl3   1  UNL1       -0.2868
     21 C           4.9505   44.4365    9.1365 C.3     1  UNL1        0.0926
     22 C           3.3873   45.0215    7.3099 C.3     1  UNL1        0.0018
     23 C           4.8444   44.8288    7.6716 C.3     1  UNL1        0.0198
     24 C           5.4352   43.7416    6.7948 C.3     1  UNL1        0.0018
     25 C           3.8585   42.2005    9.4699 C.3     1  UNL1        0.0926
     26 C           3.7484   41.6867   10.8985 C.3     1  UNL1        0.0198
     27 C           2.4089   42.0668   11.4965 C.3     1  UNL1        0.0018
     28 C           3.8805   40.1788   10.8980 C.3     1  UNL1        0.0018
@<TRIPOS>BOND
     1    22    23    1
     2    23    24    1
     3    23    21    1
     4    21    20    1
     5    25    20    1
     6    25    26    1
     7    26    27    1
     8    26    28    1
     9     1     5   ar
    10     2     7    1
    11     2     5   ar
    12     6     8   am
    13    12     8    1
    14    12    13    1
    15    14    15   ar
    16    16    18   ar
    17    17    16    1
    18    19    13   ar
    19    20     1    1
    20     3     4   ar
    21     7     6   am
    22     1     3   ar
    23     2     4   ar
    24     6     9    2
    25    13    14   ar
    26    15    16   ar
    27    18    19   ar
    28     7    10    1
    29     8    11    1
@<TRIPOS>MOLECULE
MolPort-007-714-528 ChemDiv-E002-1850 MCULE-6371993484 PubChem-22510837 ZINC000006792968 ZINC06792968
 28 29 0 0 0
SMALL
GASTEIGER

@<TRIPOS>ATOM
      1 C           6.8463   41.4088    9.2671 C.ar    1  UNL1        0.1868
      2 C           4.9798   41.3879   10.7646 C.ar    1  UNL1        0.1904
      3 N           5.7096   40.9497    8.6948 N.ar    1  UNL1       -0.1242
      4 N           4.6709   40.9380    9.5280 N.ar    1  UNL1       -0.1240
      5 S           6.5977   41.8330   10.8839 S.2     1  UNL1       -0.0154
      6 C           2.7678   42.1180   11.7730 C.2     1  UNL1        0.3062
      7 N           4.0467   41.4801   11.8452 N.am    1  UNL1       -0.2470
      8 N           1.9380   42.1440   12.9357 N.am    1  UNL1       -0.2846
      9 O           2.3717   42.6468   10.6989 O.2     1  UNL1       -0.2524
     10 H           4.3041   41.0736   12.7041 H       1  UNL1        0.1584
     11 H           2.2545   41.6898   13.7499 H       1  UNL1        0.1513
     12 C           0.6442   42.8128   12.9699 C.3     1  UNL1        0.1177
     13 C          -0.0892   42.4654   14.2211 C.ar    1  UNL1       -0.0025
     14 C           0.2660   43.0716   15.4311 C.ar    1  UNL1       -0.0029
     15 C          -0.4115   42.7370   16.6076 C.ar    1  UNL1       -0.0045
     16 C          -1.4441   41.7945   16.5759 C.ar    1  UNL1       -0.0219
     17 C          -2.1639   41.4390   17.8263 C.3     1  UNL1        0.0310
     18 C          -1.7985   41.1858   15.3680 C.ar    1  UNL1       -0.0045
     19 C          -1.1211   41.5201   14.1912 C.ar    1  UNL1       -0.0029
     20 N           8.0954   41.5193    8.5675 N.pl3   1  UNL1       -0.2868
     21 C           8.9004   42.7288    8.6988 C.3     1  UNL1        0.0926
     22 C          10.1326   43.7068   10.6086 C.3     1  UNL1        0.0018
     23 C          10.0474   42.5192    9.6742 C.3     1  UNL1        0.0198
     24 C          11.3565   42.3838    8.9208 C.3     1  UNL1        0.0018
     25 C           8.6819   40.3565    7.9067 C.3     1  UNL1        0.0926
     26 C           8.7853   40.5718    6.4034 C.3     1  UNL1        0.0198
     27 C          10.2256   40.8171    6.0011 C.3     1  UNL1        0.0018
     28 C           8.2738   39.3406    5.6866 C.3     1  UNL1        0.0018
@<TRIPOS>BOND
     1    22    23    1
     2    23    24    1
     3    23    21    1
     4    21    20    1
     5    25    20    1
     6    25    26    1
     7    26    27    1
     8    26    28    1
     9     1     5   ar
    10     2     7    1
    11     2     5   ar
    12     6     8   am
    13    12     8    1
    14    12    13    1
    15    14    15   ar
    16    16    18   ar
    17    17    16    1
    18    19    13   ar
    19    20     1    1
    20     3     4   ar
    21     7     6   am
    22     1     3   ar
    23     2     4   ar
    24     6     9    2
    25    13    14   ar
    26    15    16   ar
    27    18    19   ar
    28     7    10    1
    29     8    11    1
@<TRIPOS>MOLECULE
MolPort-007-714-528 ChemDiv-E002-1850 MCULE-6371993484 PubChem-22510837 ZINC000006792968 ZINC06792968
 28 29 0 0 0
SMALL
GASTEIGER

@<TRIPOS>ATOM
      1 C           7.2603   41.8444   10.2278 C.ar    1  UNL1        0.1868
      2 C           9.5079   41.3050   10.8474 C.ar    1  UNL1        0.1904
      3 N           7.4931   41.9757   11.5540 N.ar    1  UNL1       -0.1242
      4 N           8.7437   41.6755   11.8990 N.ar    1  UNL1       -0.1240
      5 S           8.6447   41.3342    9.4039 S.2     1  UNL1       -0.0154
      6 C          11.8143   40.9349    9.8542 C.2     1  UNL1        0.3062
      7 N          10.8866   40.9348   10.9436 N.am    1  UNL1       -0.2470
      8 N          13.1643   40.5321   10.0915 N.am    1  UNL1       -0.2846
      9 O          11.4517   41.2898    8.6996 O.2     1  UNL1       -0.2524
     10 H          11.2227   40.6590   11.8269 H       1  UNL1        0.1584
     11 H          13.4307   40.2973   11.0097 H       1  UNL1        0.1513
     12 C          14.1642   40.4533    9.0348 C.3     1  UNL1        0.1177
     13 C          15.3143   39.6082    9.4675 C.ar    1  UNL1       -0.0025
     14 C          15.1956   38.2140    9.4703 C.ar    1  UNL1       -0.0029
     15 C          16.2682   37.4206    9.8886 C.ar    1  UNL1       -0.0045
     16 C          17.4605   38.0204   10.3062 C.ar    1  UNL1       -0.0219
     17 C          18.6002   37.1770   10.7508 C.3     1  UNL1        0.0310
     18 C          17.5798   39.4136   10.3066 C.ar    1  UNL1       -0.0045
     19 C          16.5072   40.2073    9.8884 C.ar    1  UNL1       -0.0029
     20 N           5.9894   42.1162    9.6170 N.pl3   1  UNL1       -0.2868
     21 C           5.5407   43.4941    9.4493 C.3     1  UNL1        0.0926
     22 C           6.4571   43.1460    7.1775 C.3     1  UNL1        0.0018
     23 C           6.2476   44.1612    8.2804 C.3     1  UNL1        0.0198
     24 C           7.5941   44.7009    8.7224 C.3     1  UNL1        0.0018
     25 C           5.2391   41.0505    8.9581 C.3     1  UNL1        0.0926
     26 C           4.0286   40.6382    9.7838 C.3     1  UNL1        0.0198
     27 C           4.2866   40.8772   11.2579 C.3     1  UNL1        0.0018
     28 C           2.8289   41.4541    9.3523 C.3     1  UNL1        0.0018
@<TRIPOS>BOND
     1    22    23    1
     2    23    24    1
     3    23    21    1
     4    21    20    1
     5    25    20    1
     6    25    26    1
     7    26    27    1
     8    26    28    1
     9     1     5   ar
    10     2     7    1
    11     2     5   ar
    12     6     8   am
    13    12     8    1
    14    12    13    1
    15    14    15   ar
    16    16    18   ar
    17    17    16    1
    18    19    13   ar
    19    20     1    1
    20     3     4   ar
    21     7     6   am
    22     1     3   ar
    23     2     4   ar
    24     6     9    2
    25    13    14   ar
    26    15    16   ar
    27    18    19   ar
    28     7    10    1
    29     8    11    1
@<TRIPOS>MOLECULE
MolPort-007-714-528 ChemDiv-E002-1850 MCULE-6371993484 PubChem-22510837 ZINC000006792968 ZINC06792968
 28 29 0 0 0
SMALL
GASTEIGER

@<TRIPOS>ATOM
      1 C           6.0061   41.6749    8.8873 C.ar    1  UNL1        0.1868
      2 C           8.3148   41.0650    8.7310 C.ar    1  UNL1        0.1904
      3 N           6.2743   40.8715    7.8323 N.ar    1  UNL1       -0.1242
      4 N           7.5590   40.5321    7.7452 N.ar    1  UNL1       -0.1240
      5 S           7.3999   42.0056    9.7836 S.2     1  UNL1       -0.0154
      6 C          10.3918   40.5613   10.1004 C.2     1  UNL1        0.3062
      7 N           9.7232   40.8551    8.8698 N.am    1  UNL1       -0.2470
      8 N          11.8094   40.3834   10.0954 N.am    1  UNL1       -0.2846
      9 O           9.7428   40.4547   11.1764 O.2     1  UNL1       -0.2524
     10 H          10.2745   40.9175    8.0566 H       1  UNL1        0.1584
     11 H          12.2867   40.4332    9.2359 H       1  UNL1        0.1513
     12 C          12.5797   40.1314   11.3060 C.3     1  UNL1        0.1177
     13 C          13.8617   39.4453   10.9747 C.ar    1  UNL1       -0.0025
     14 C          14.5648   38.7582   11.9703 C.ar    1  UNL1       -0.0029
     15 C          15.7738   38.1260   11.6645 C.ar    1  UNL1       -0.0045
     16 C          16.2822   38.1813   10.3629 C.ar    1  UNL1       -0.0219
     17 C          17.5671   37.5094   10.0382 C.3     1  UNL1        0.0310
     18 C          15.5822   38.8699    9.3674 C.ar    1  UNL1       -0.0045
     19 C          14.3730   39.5024    9.6730 C.ar    1  UNL1       -0.0029
     20 N           4.6923   42.1681    9.1922 N.pl3   1  UNL1       -0.2868
     21 C           4.4427   43.6048    9.2278 C.3     1  UNL1        0.0926
     22 C           5.8745   44.9258    7.7023 C.3     1  UNL1        0.0018
     23 C           4.5464   44.2126    7.8382 C.3     1  UNL1        0.0198
     24 C           3.4227   45.2065    7.6168 C.3     1  UNL1        0.0018
     25 C           3.5516   41.2578    9.2463 C.3     1  UNL1        0.0926
     26 C           3.1857   40.9189   10.6845 C.3     1  UNL1        0.0198
     27 C           4.3972   40.3967   11.4303 C.3     1  UNL1        0.0018
     28 C           2.6772   42.1651   11.3769 C.3     1  UNL1        0.0018
@<TRIPOS>BOND
     1    22    23    1
     2    23    24    1
     3    23    21    1
     4    21    20    1
     5    25    20    1
     6    25    26    1
     7    26    27    1
     8    26    28    1
     9     1     5   ar
    10     2     7    1
    11     2     5   ar
    12     6     8   am
    13    12     8    1
    14    12    13    1
    15    14    15   ar
    16    16    18   ar
    17    17    16    1
    18    19    13   ar
    19    20     1    1
    20     3     4   ar
    21     7     6   am
    22     1     3   ar
    23     2     4   ar
    24     6     9    2
    25    13    14   ar
    26    15    16   ar
    27    18    19   ar
    28     7    10    1
    29     8    11    1
@<TRIPOS>MOLECULE
MolPort-007-714-528 ChemDiv-E002-1850 MCULE-6371993484 PubChem-22510837 ZINC000006792968 ZINC06792968
 28 29 0 0 0
SMALL
GASTEIGER

@<TRIPOS>ATOM
      1 C           7.4079   42.4910    9.6175 C.ar    1  UNL1        0.1868
      2 C           9.7410   42.1912    9.1779 C.ar    1  UNL1        0.1904
      3 N           8.1706   43.5126   10.0702 N.ar    1  UNL1       -0.1242
      4 N           9.4689   43.3459    9.8257 N.ar    1  UNL1       -0.1240
      5 S           8.3470   41.3013    8.8703 S.2     1  UNL1       -0.0154
      6 C          11.9945   41.1262    9.6578 C.2     1  UNL1        0.3062
      7 N          11.0542   41.7724    8.7942 N.am    1  UNL1       -0.2470
      8 N          13.2786   40.7691    9.1432 N.am    1  UNL1       -0.2846
      9 O          11.6970   40.8683   10.8558 O.2     1  UNL1       -0.2524
     10 H          11.3320   41.9418    7.8651 H       1  UNL1        0.1584
     11 H          13.4710   40.9464    8.1941 H       1  UNL1        0.1513
     12 C          14.3159   40.1543    9.9608 C.3     1  UNL1        0.1177
     13 C          14.3887   38.6886    9.6951 C.ar    1  UNL1       -0.0025
     14 C          15.6282   38.0790    9.4723 C.ar    1  UNL1       -0.0029
     15 C          15.6970   36.7074    9.2095 C.ar    1  UNL1       -0.0045
     16 C          14.5262   35.9439    9.1677 C.ar    1  UNL1       -0.0219
     17 C          14.5996   34.4863    8.8883 C.3     1  UNL1        0.0310
     18 C          13.2864   36.5521    9.3874 C.ar    1  UNL1       -0.0045
     19 C          13.2173   37.9238    9.6501 C.ar    1  UNL1       -0.0029
     20 N           5.9796   42.4468    9.7594 N.pl3   1  UNL1       -0.2868
     21 C           5.1235   42.7719    8.6239 C.3     1  UNL1        0.0926
     22 C           4.0953   44.8614    7.7879 C.3     1  UNL1        0.0018
     23 C           5.4050   44.1749    8.1107 C.3     1  UNL1        0.0198
     24 C           6.2563   44.1123    6.8572 C.3     1  UNL1        0.0018
     25 C           5.3695   41.8658   10.9523 C.3     1  UNL1        0.0926
     26 C           3.9516   41.3901   10.6692 C.3     1  UNL1        0.0198
     27 C           3.7585   39.9727   11.1695 C.3     1  UNL1        0.0018
     28 C           2.9694   42.3017   11.3729 C.3     1  UNL1        0.0018
@<TRIPOS>BOND
     1    22    23    1
     2    23    24    1
     3    23    21    1
     4    21    20    1
     5    25    20    1
     6    25    26    1
     7    26    27    1
     8    26    28    1
     9     1     5   ar
    10     2     7    1
    11     2     5   ar
    12     6     8   am
    13    12     8    1
    14    12    13    1
    15    14    15   ar
    16    16    18   ar
    17    17    16    1
    18    19    13   ar
    19    20     1    1
    20     3     4   ar
    21     7     6   am
    22     1     3   ar
    23     2     4   ar
    24     6     9    2
    25    13    14   ar
    26    15    16   ar
    27    18    19   ar
    28     7    10    1
    29     8    11    1
@<TRIPOS>MOLECULE
MolPort-007-714-528 ChemDiv-E002-1850 MCULE-6371993484 PubChem-22510837 ZINC000006792968 ZINC06792968
 28 29 0 0 0
SMALL
GASTEIGER

@<TRIPOS>ATOM
      1 C           5.9795   41.8992   10.3182 C.ar    1  UNL1        0.1868
      2 C           8.2018   41.3314   11.0009 C.ar    1  UNL1        0.1904
      3 N           6.1523   41.9435   11.6593 N.ar    1  UNL1       -0.1242
      4 N           7.3888   41.6275   12.0393 N.ar    1  UNL1       -0.1240
      5 S           7.4032   41.4519    9.5252 S.2     1  UNL1       -0.0154
      6 C          10.5823   41.1664   10.1355 C.2     1  UNL1        0.3062
      7 N           9.5778   40.9628   11.1340 N.am    1  UNL1       -0.2470
      8 N          11.9202   40.7400   10.3992 N.am    1  UNL1       -0.2846
      9 O          10.2971   41.7189    9.0384 O.2     1  UNL1       -0.2524
     10 H           9.8546   40.5364   11.9771 H       1  UNL1        0.1584
     11 H          12.1241   40.3472   11.2786 H       1  UNL1        0.1513
     12 C          12.9960   40.8609    9.4243 C.3     1  UNL1        0.1177
     13 C          12.4672   40.6890    8.0405 C.ar    1  UNL1       -0.0025
     14 C          11.8466   39.4900    7.6729 C.ar    1  UNL1       -0.0029
     15 C          11.3624   39.3221    6.3720 C.ar    1  UNL1       -0.0045
     16 C          11.4996   40.3523    5.4365 C.ar    1  UNL1       -0.0219
     17 C          10.9850   40.1736    4.0540 C.3     1  UNL1        0.0310
     18 C          12.1220   41.5501    5.8014 C.ar    1  UNL1       -0.0045
     19 C          12.6064   41.7183    7.1023 C.ar    1  UNL1       -0.0029
     20 N           4.7349   42.2045    9.6704 N.pl3   1  UNL1       -0.2868
     21 C           3.7784   41.1395    9.3896 C.3     1  UNL1        0.0926
     22 C           2.6293   42.1003   11.3590 C.3     1  UNL1        0.0018
     23 C           2.9414   40.8183   10.6174 C.3     1  UNL1        0.0198
     24 C           3.7010   39.8829   11.5382 C.3     1  UNL1        0.0018
     25 C           4.3120   43.5906    9.4901 C.3     1  UNL1        0.0926
     26 C           4.5359   44.0523    8.0570 C.3     1  UNL1        0.0198
     27 C           3.5175   45.1076    7.6751 C.3     1  UNL1        0.0018
     28 C           5.9262   44.6379    7.9329 C.3     1  UNL1        0.0018
@<TRIPOS>BOND
     1    22    23    1
     2    23    24    1
     3    23    21    1
     4    21    20    1
     5    25    20    1
     6    25    26    1
     7    26    27    1
     8    26    28    1
     9     1     5   ar
    10     2     7    1
    11     2     5   ar
    12     6     8   am
    13    12     8    1
    14    12    13    1
    15    14    15   ar
    16    16    18   ar
    17    17    16    1
    18    19    13   ar
    19    20     1    1
    20     3     4   ar
    21     7     6   am
    22     1     3   ar
    23     2     4   ar
    24     6     9    2
    25    13    14   ar
    26    15    16   ar
    27    18    19   ar
    28     7    10    1
    29     8    11    1
