@<TRIPOS>MOLECULE
MolPort-010-777-188 MolPort-047-912-736 ChemDiv-G889-0544 MCULE-1618328952 MCULE-8804797512 PubChem-163337550 PubChem-50807320 ZINC000046053479
 28 29 0 0 0
SMALL
GASTEIGER

@<TRIPOS>ATOM
      1 C           9.6588   34.4019   13.5268 C.ar    1  UNL1        0.0542
      2 C           8.6750   35.2776   12.9999 C.ar    1  UNL1        0.0900
      3 C           9.0150   36.1107   11.9249 C.ar    1  UNL1        0.0224
      4 C          10.2938   36.0791   11.3547 C.ar    1  UNL1        0.0508
      5 C          11.2439   35.1931   11.8625 C.ar    1  UNL1        0.0160
      6 C          10.9303   34.3648   12.9397 C.ar    1  UNL1        0.0160
      7 C          11.6153   37.9898   10.2601 C.2     1  UNL1        0.2517
      8 N          10.6558   36.9217   10.2522 N.am    1  UNL1       -0.2803
      9 O          12.2470   38.2675   11.3161 O.2     1  UNL1       -0.2697
     10 H          10.1973   36.7492    9.3982 H       1  UNL1        0.1552
     11 C          11.8744   38.7759    9.0311 C.ar    1  UNL1        0.0811
     12 C          13.1073   39.4235    8.7937 C.ar    1  UNL1        0.1445
     13 C          13.3007   40.1536    7.6166 C.ar    1  UNL1        0.0298
     14 C          12.2807   40.2488    6.6685 C.ar    1  UNL1        0.0023
     15 C          11.0594   39.6128    6.8934 C.ar    1  UNL1        0.0003
     16 C          10.8590   38.8821    8.0666 C.ar    1  UNL1        0.0068
     17 F          14.1264   39.3588    9.6859 F       1  UNL1       -0.2040
     18 C           7.2800   35.3230   13.4901 C.2     1  UNL1        0.3393
     19 O           6.2462   34.8646   12.6813 O.3     1  UNL1       -0.4771
     20 O           7.0110   35.7283   14.6514 O.2     1  UNL1       -0.2450
     21 H           6.4296   34.5596   11.8145 H       1  UNL1        0.2954
     22 N           9.4140   33.5841   14.6802 N.pl3   1  UNL1       -0.3073
     23 C          10.5185   32.9573   15.3999 C.3     1  UNL1        0.0908
     24 C          10.1573   31.5343   15.7850 C.3     1  UNL1        0.0232
     25 C           8.0519   33.4363   15.1801 C.3     1  UNL1        0.0908
     26 C           7.4694   32.0786   14.8012 C.3     1  UNL1        0.0214
     27 C           5.2191   32.3834   15.8348 C.3     1  UNL1        0.0001
     28 C           5.9747   32.1668   14.5373 C.3     1  UNL1        0.0018
@<TRIPOS>BOND
     1    27    28    1
     2    28    26    1
     3    26    25    1
     4    25    22    1
     5    23    22    1
     6    23    24    1
     7     2     3   ar
     8     2    18    1
     9     4     8    1
    10     4     5   ar
    11     7    11    1
    12    12    17    1
    13    12    13   ar
    14    14    15   ar
    15    16    11   ar
    16     6     1   ar
    17    18    19    1
    18    22     1    1
    19     8     7   am
    20     1     2   ar
    21     3     4   ar
    22     7     9    2
    23    11    12   ar
    24    13    14   ar
    25    15    16   ar
    26     5     6   ar
    27    18    20    2
    28     8    10    1
    29    19    21    1
@<TRIPOS>MOLECULE
MolPort-010-777-188 MolPort-047-912-736 ChemDiv-G889-0544 MCULE-1618328952 MCULE-8804797512 PubChem-163337550 PubChem-50807320 ZINC000046053479
 28 29 0 0 0
SMALL
GASTEIGER

@<TRIPOS>ATOM
      1 C           8.6863   41.7249    7.4649 C.ar    1  UNL1        0.0542
      2 C           9.5462   41.1286    6.5072 C.ar    1  UNL1        0.0900
      3 C          10.9326   41.2697    6.6603 C.ar    1  UNL1        0.0224
      4 C          11.4786   41.9676    7.7449 C.ar    1  UNL1        0.0508
      5 C          10.6237   42.5247    8.6959 C.ar    1  UNL1        0.0160
      6 C           9.2412   42.4069    8.5556 C.ar    1  UNL1        0.0160
      7 C          13.7795   42.9296    7.1319 C.2     1  UNL1        0.2517
      8 N          12.8943   42.1171    7.9180 N.am    1  UNL1       -0.2803
      9 O          13.3287   43.6148    6.1735 O.2     1  UNL1       -0.2697
     10 H          13.3031   41.6081    8.6549 H       1  UNL1        0.1552
     11 C          15.2288   42.9731    7.4370 C.ar    1  UNL1        0.0811
     12 C          16.0587   44.0357    7.0152 C.ar    1  UNL1        0.1445
     13 C          17.4215   44.0285    7.3295 C.ar    1  UNL1        0.0298
     14 C          17.9725   42.9747    8.0606 C.ar    1  UNL1        0.0023
     15 C          17.1615   41.9205    8.4819 C.ar    1  UNL1        0.0003
     16 C          15.7997   41.9209    8.1716 C.ar    1  UNL1        0.0068
     17 F          15.5678   45.0801    6.3032 F       1  UNL1       -0.2040
     18 C           9.0596   40.3114    5.3742 C.2     1  UNL1        0.3393
     19 O           9.6938   40.3915    4.1395 O.3     1  UNL1       -0.4771
     20 O           8.1045   39.5037    5.5171 O.2     1  UNL1       -0.2450
     21 H          10.4063   40.9875    4.0166 H       1  UNL1        0.2954
     22 N           7.2580   41.6995    7.3291 N.pl3   1  UNL1       -0.3073
     23 C           6.4454   40.8039    8.1466 C.3     1  UNL1        0.0908
     24 C           6.3491   41.3285    9.5675 C.3     1  UNL1        0.0232
     25 C           6.6066   42.6301    6.4143 C.3     1  UNL1        0.0908
     26 C           6.7794   44.0725    6.8792 C.3     1  UNL1        0.0214
     27 C           4.4873   44.7232    7.6194 C.3     1  UNL1        0.0001
     28 C           5.8936   44.3830    8.0752 C.3     1  UNL1        0.0018
@<TRIPOS>BOND
     1    27    28    1
     2    28    26    1
     3    26    25    1
     4    25    22    1
     5    23    22    1
     6    23    24    1
     7     2     3   ar
     8     2    18    1
     9     4     8    1
    10     4     5   ar
    11     7    11    1
    12    12    17    1
    13    12    13   ar
    14    14    15   ar
    15    16    11   ar
    16     6     1   ar
    17    18    19    1
    18    22     1    1
    19     8     7   am
    20     1     2   ar
    21     3     4   ar
    22     7     9    2
    23    11    12   ar
    24    13    14   ar
    25    15    16   ar
    26     5     6   ar
    27    18    20    2
    28     8    10    1
    29    19    21    1
@<TRIPOS>MOLECULE
MolPort-010-777-188 MolPort-047-912-736 ChemDiv-G889-0544 MCULE-1618328952 MCULE-8804797512 PubChem-163337550 PubChem-50807320 ZINC000046053479
 28 29 0 0 0
SMALL
GASTEIGER

@<TRIPOS>ATOM
      1 C          10.2487   39.3658    6.2894 C.ar    1  UNL1        0.0542
      2 C          10.5913   40.6810    6.6955 C.ar    1  UNL1        0.0900
      3 C          10.4594   41.0290    8.0472 C.ar    1  UNL1        0.0224
      4 C          10.0168   40.1014    8.9985 C.ar    1  UNL1        0.0508
      5 C           9.7106   38.8027    8.5919 C.ar    1  UNL1        0.0160
      6 C           9.8228   38.4394    7.2502 C.ar    1  UNL1        0.0160
      7 C           8.7808   41.1267   11.0026 C.2     1  UNL1        0.2517
      8 N           9.8806   40.4404   10.3852 N.am    1  UNL1       -0.2803
      9 O           7.7934   41.4952   10.3095 O.2     1  UNL1       -0.2697
     10 H          10.6205   40.1739   10.9774 H       1  UNL1        0.1552
     11 C           8.7927   41.4086   12.4572 C.ar    1  UNL1        0.0811
     12 C           8.2885   42.6123   12.9982 C.ar    1  UNL1        0.1445
     13 C           8.3234   42.8292   14.3794 C.ar    1  UNL1        0.0298
     14 C           8.8548   41.8614   15.2335 C.ar    1  UNL1        0.0023
     15 C           9.3552   40.6692   14.7092 C.ar    1  UNL1        0.0003
     16 C           9.3238   40.4457   13.3309 C.ar    1  UNL1        0.0068
     17 F           7.7630   43.5805   12.2076 F       1  UNL1       -0.2040
     18 C          11.1377   41.7008    5.7736 C.2     1  UNL1        0.3393
     19 O          10.2784   42.5836    5.1292 O.3     1  UNL1       -0.4771
     20 O          12.3783   41.8177    5.5936 O.2     1  UNL1       -0.2450
     21 H           9.3524   42.5101    5.2525 H       1  UNL1        0.2954
     22 N          10.2729   38.9612    4.9129 N.pl3   1  UNL1       -0.3073
     23 C          11.0378   37.7916    4.4910 C.3     1  UNL1        0.0908
     24 C          11.8593   38.1156    3.2567 C.3     1  UNL1        0.0232
     25 C           9.4666   39.6853    3.9368 C.3     1  UNL1        0.0908
     26 C           7.9826   39.3794    4.1116 C.3     1  UNL1        0.0214
     27 C           7.0284   40.8561    5.8820 C.3     1  UNL1        0.0001
     28 C           7.5621   39.4708    5.5699 C.3     1  UNL1        0.0018
@<TRIPOS>BOND
     1    27    28    1
     2    28    26    1
     3    26    25    1
     4    25    22    1
     5    23    22    1
     6    23    24    1
     7     2     3   ar
     8     2    18    1
     9     4     8    1
    10     4     5   ar
    11     7    11    1
    12    12    17    1
    13    12    13   ar
    14    14    15   ar
    15    16    11   ar
    16     6     1   ar
    17    18    19    1
    18    22     1    1
    19     8     7   am
    20     1     2   ar
    21     3     4   ar
    22     7     9    2
    23    11    12   ar
    24    13    14   ar
    25    15    16   ar
    26     5     6   ar
    27    18    20    2
    28     8    10    1
    29    19    21    1
@<TRIPOS>MOLECULE
MolPort-010-777-188 MolPort-047-912-736 ChemDiv-G889-0544 MCULE-1618328952 MCULE-8804797512 PubChem-163337550 PubChem-50807320 ZINC000046053479
 28 29 0 0 0
SMALL
GASTEIGER

@<TRIPOS>ATOM
      1 C           9.2794   41.6337    8.5628 C.ar    1  UNL1        0.0542
      2 C           9.7353   41.8127    7.2315 C.ar    1  UNL1        0.0900
      3 C          11.1083   41.9781    7.0017 C.ar    1  UNL1        0.0224
      4 C          12.0317   41.9502    8.0543 C.ar    1  UNL1        0.0508
      5 C          11.5744   41.7444    9.3559 C.ar    1  UNL1        0.0160
      6 C          10.2114   41.5905    9.6079 C.ar    1  UNL1        0.0160
      7 C          14.0800   43.1385    7.0605 C.2     1  UNL1        0.2517
      8 N          13.4395   42.1135    7.8355 N.am    1  UNL1       -0.2803
      9 O          13.3897   44.0252    6.4873 O.2     1  UNL1       -0.2697
     10 H          14.0302   41.4517    8.2624 H       1  UNL1        0.1552
     11 C          15.5553   43.1671    6.9259 C.ar    1  UNL1        0.0811
     12 C          16.2032   43.7920    5.8371 C.ar    1  UNL1        0.1445
     13 C          17.5996   43.7906    5.7572 C.ar    1  UNL1        0.0298
     14 C          18.3634   43.1738    6.7495 C.ar    1  UNL1        0.0023
     15 C          17.7332   42.5539    7.8289 C.ar    1  UNL1        0.0003
     16 C          16.3392   42.5513    7.9153 C.ar    1  UNL1        0.0068
     17 F          15.5027   44.4035    4.8502 F       1  UNL1       -0.2040
     18 C           8.8405   41.7800    6.0539 C.2     1  UNL1        0.3393
     19 O           8.0859   42.9007    5.7258 O.3     1  UNL1       -0.4771
     20 O           8.7817   40.7666    5.3091 O.2     1  UNL1       -0.2450
     21 H           8.1184   43.6630    6.2696 H       1  UNL1        0.2954
     22 N           7.8842   41.5463    8.8867 N.pl3   1  UNL1       -0.3073
     23 C           7.0462   40.5014    8.3064 C.3     1  UNL1        0.0908
     24 C           5.6126   40.9835    8.1813 C.3     1  UNL1        0.0232
     25 C           7.3139   42.4688    9.8619 C.3     1  UNL1        0.0908
     26 C           8.1319   42.4859   11.1491 C.3     1  UNL1        0.0214
     27 C           8.7914   41.1147   13.1265 C.3     1  UNL1        0.0001
     28 C           7.7115   41.3698   12.0921 C.3     1  UNL1        0.0018
@<TRIPOS>BOND
     1    27    28    1
     2    28    26    1
     3    26    25    1
     4    25    22    1
     5    23    22    1
     6    23    24    1
     7     2     3   ar
     8     2    18    1
     9     4     8    1
    10     4     5   ar
    11     7    11    1
    12    12    17    1
    13    12    13   ar
    14    14    15   ar
    15    16    11   ar
    16     6     1   ar
    17    18    19    1
    18    22     1    1
    19     8     7   am
    20     1     2   ar
    21     3     4   ar
    22     7     9    2
    23    11    12   ar
    24    13    14   ar
    25    15    16   ar
    26     5     6   ar
    27    18    20    2
    28     8    10    1
    29    19    21    1
@<TRIPOS>MOLECULE
MolPort-010-777-188 MolPort-047-912-736 ChemDiv-G889-0544 MCULE-1618328952 MCULE-8804797512 PubChem-163337550 PubChem-50807320 ZINC000046053479
 28 29 0 0 0
SMALL
GASTEIGER

@<TRIPOS>ATOM
      1 C           7.6140   42.2634    9.1601 C.ar    1  UNL1        0.0542
      2 C           8.4528   41.6994    8.1649 C.ar    1  UNL1        0.0900
      3 C           9.6740   41.1293    8.5510 C.ar    1  UNL1        0.0224
      4 C          10.0674   41.0905    9.8946 C.ar    1  UNL1        0.0508
      5 C           9.2210   41.6222   10.8675 C.ar    1  UNL1        0.0160
      6 C           8.0076   42.2054   10.5034 C.ar    1  UNL1        0.0160
      7 C          12.6060   40.7385    9.7308 C.2     1  UNL1        0.2517
      8 N          11.3110   40.5072   10.3063 N.am    1  UNL1       -0.2803
      9 O          12.7357   41.5320    8.7588 O.2     1  UNL1       -0.2697
     10 H          11.2729   39.8810   11.0650 H       1  UNL1        0.1552
     11 C          13.8018   40.0503   10.2709 C.ar    1  UNL1        0.0811
     12 C          15.0642   40.1216    9.6408 C.ar    1  UNL1        0.1445
     13 C          16.1620   39.4528   10.1920 C.ar    1  UNL1        0.0298
     14 C          16.0208   38.7111   11.3661 C.ar    1  UNL1        0.0023
     15 C          14.7783   38.6344   11.9962 C.ar    1  UNL1        0.0003
     16 C          13.6777   39.2996   11.4514 C.ar    1  UNL1        0.0068
     17 F          15.2488   40.8297    8.4992 F       1  UNL1       -0.2040
     18 C           8.0835   41.6290    6.7341 C.2     1  UNL1        0.3393
     19 O           8.6841   42.4878    5.8205 O.3     1  UNL1       -0.4771
     20 O           7.2642   40.7698    6.3148 O.2     1  UNL1       -0.2450
     21 H           9.2961   43.1328    6.1162 H       1  UNL1        0.2954
     22 N           6.3925   42.9422    8.8341 N.pl3   1  UNL1       -0.3073
     23 C           6.3984   44.3535    8.4611 C.3     1  UNL1        0.0908
     24 C           5.1514   44.6942    7.6659 C.3     1  UNL1        0.0232
     25 C           5.1405   42.1947    8.8063 C.3     1  UNL1        0.0908
     26 C           4.4578   42.2111   10.1701 C.3     1  UNL1        0.0214
     27 C           3.9913   40.1361   11.4746 C.3     1  UNL1        0.0001
     28 C           3.5210   41.0256   10.3394 C.3     1  UNL1        0.0018
@<TRIPOS>BOND
     1    27    28    1
     2    28    26    1
     3    26    25    1
     4    25    22    1
     5    23    22    1
     6    23    24    1
     7     2     3   ar
     8     2    18    1
     9     4     8    1
    10     4     5   ar
    11     7    11    1
    12    12    17    1
    13    12    13   ar
    14    14    15   ar
    15    16    11   ar
    16     6     1   ar
    17    18    19    1
    18    22     1    1
    19     8     7   am
    20     1     2   ar
    21     3     4   ar
    22     7     9    2
    23    11    12   ar
    24    13    14   ar
    25    15    16   ar
    26     5     6   ar
    27    18    20    2
    28     8    10    1
    29    19    21    1
@<TRIPOS>MOLECULE
MolPort-010-777-188 MolPort-047-912-736 ChemDiv-G889-0544 MCULE-1618328952 MCULE-8804797512 PubChem-163337550 PubChem-50807320 ZINC000046053479
 28 29 0 0 0
SMALL
GASTEIGER

@<TRIPOS>ATOM
      1 C          12.6677   40.9954    9.4043 C.ar    1  UNL1        0.0542
      2 C          12.0066   41.6895    8.3587 C.ar    1  UNL1        0.0900
      3 C          10.6153   41.8489    8.4246 C.ar    1  UNL1        0.0224
      4 C           9.8759   41.3550    9.5066 C.ar    1  UNL1        0.0508
      5 C          10.5407   40.6996   10.5430 C.ar    1  UNL1        0.0160
      6 C          11.9226   40.5192   10.4909 C.ar    1  UNL1        0.0160
      7 C           7.6103   42.2440    8.6868 C.2     1  UNL1        0.2517
      8 N           8.4532   41.5135    9.5910 N.am    1  UNL1       -0.2803
      9 O           8.1094   42.8294    7.6870 O.2     1  UNL1       -0.2697
     10 H           8.0064   41.0743   10.3504 H       1  UNL1        0.1552
     11 C           6.1484   42.3179    8.9164 C.ar    1  UNL1        0.0811
     12 C           5.4300   43.5313    8.8309 C.ar    1  UNL1        0.1445
     13 C           4.0499   43.5467    9.0569 C.ar    1  UNL1        0.0298
     14 C           3.3717   42.3670    9.3681 C.ar    1  UNL1        0.0023
     15 C           4.0719   41.1634    9.4549 C.ar    1  UNL1        0.0003
     16 C           5.4502   41.1404    9.2305 C.ar    1  UNL1        0.0068
     17 F           6.0463   44.7015    8.5315 F       1  UNL1       -0.2040
     18 C          12.7159   42.3089    7.2178 C.2     1  UNL1        0.3393
     19 O          13.2515   43.5856    7.3455 O.3     1  UNL1       -0.4771
     20 O          12.8869   41.6817    6.1396 O.2     1  UNL1       -0.2450
     21 H          13.1332   44.0657    8.1413 H       1  UNL1        0.2954
     22 N          14.0746   40.7157    9.3648 N.pl3   1  UNL1       -0.3073
     23 C          14.6562   39.6864   10.2209 C.3     1  UNL1        0.0908
     24 C          13.5643   38.9418   10.9671 C.3     1  UNL1        0.0232
     25 C          14.9203   41.4188    8.4069 C.3     1  UNL1        0.0908
     26 C          16.3663   41.4801    8.8886 C.3     1  UNL1        0.0214
     27 C          17.4936   43.7014    8.7484 C.3     1  UNL1        0.0001
     28 C          17.2053   42.4029    8.0191 C.3     1  UNL1        0.0018
@<TRIPOS>BOND
     1    27    28    1
     2    28    26    1
     3    26    25    1
     4    25    22    1
     5    23    22    1
     6    23    24    1
     7     2     3   ar
     8     2    18    1
     9     4     8    1
    10     4     5   ar
    11     7    11    1
    12    12    17    1
    13    12    13   ar
    14    14    15   ar
    15    16    11   ar
    16     6     1   ar
    17    18    19    1
    18    22     1    1
    19     8     7   am
    20     1     2   ar
    21     3     4   ar
    22     7     9    2
    23    11    12   ar
    24    13    14   ar
    25    15    16   ar
    26     5     6   ar
    27    18    20    2
    28     8    10    1
    29    19    21    1
@<TRIPOS>MOLECULE
MolPort-010-777-188 MolPort-047-912-736 ChemDiv-G889-0544 MCULE-1618328952 MCULE-8804797512 PubChem-163337550 PubChem-50807320 ZINC000046053479
 28 29 0 0 0
SMALL
GASTEIGER

@<TRIPOS>ATOM
      1 C          10.5535   40.6803    7.5396 C.ar    1  UNL1        0.0542
      2 C           9.5264   41.5024    7.0093 C.ar    1  UNL1        0.0900
      3 C           8.3446   41.6699    7.7447 C.ar    1  UNL1        0.0224
      4 C           8.1708   41.0594    8.9932 C.ar    1  UNL1        0.0508
      5 C           9.1995   40.2768    9.5175 C.ar    1  UNL1        0.0160
      6 C          10.3780   40.0869    8.7965 C.ar    1  UNL1        0.0160
      7 C           5.6205   41.1772    9.2716 C.2     1  UNL1        0.2517
      8 N           6.9700   41.2242    9.7596 N.am    1  UNL1       -0.2803
      9 O           5.3951   40.9676    8.0483 O.2     1  UNL1       -0.2697
     10 H           7.0832   41.3871   10.7240 H       1  UNL1        0.1552
     11 C           4.4799   41.3731   10.1969 C.ar    1  UNL1        0.0811
     12 C           4.5115   40.9345   11.5394 C.ar    1  UNL1        0.1445
     13 C           3.4073   41.1440   12.3718 C.ar    1  UNL1        0.0298
     14 C           2.2674   41.7864   11.8854 C.ar    1  UNL1        0.0023
     15 C           2.2262   42.2234   10.5610 C.ar    1  UNL1        0.0003
     16 C           3.3251   42.0176    9.7239 C.ar    1  UNL1        0.0068
     17 F           5.5966   40.3062   12.0556 F       1  UNL1       -0.2040
     18 C           9.6544   42.2448    5.7361 C.2     1  UNL1        0.3393
     19 O          10.8720   42.2648    5.0652 O.3     1  UNL1       -0.4771
     20 O           8.6643   42.8256    5.2189 O.2     1  UNL1       -0.2450
     21 H          11.6186   41.8374    5.4366 H       1  UNL1        0.2954
     22 N          11.7533   40.3899    6.8078 N.pl3   1  UNL1       -0.3073
     23 C          12.9251   41.2530    6.9210 C.3     1  UNL1        0.0908
     24 C          12.9700   41.9046    8.2910 C.3     1  UNL1        0.0232
     25 C          11.8254   39.1794    5.9975 C.3     1  UNL1        0.0908
     26 C          11.1912   39.3941    4.6272 C.3     1  UNL1        0.0214
     27 C           9.4839   38.4189    3.0913 C.3     1  UNL1        0.0001
     28 C           9.8245   38.7343    4.5354 C.3     1  UNL1        0.0018
@<TRIPOS>BOND
     1    27    28    1
     2    28    26    1
     3    26    25    1
     4    25    22    1
     5    23    22    1
     6    23    24    1
     7     2     3   ar
     8     2    18    1
     9     4     8    1
    10     4     5   ar
    11     7    11    1
    12    12    17    1
    13    12    13   ar
    14    14    15   ar
    15    16    11   ar
    16     6     1   ar
    17    18    19    1
    18    22     1    1
    19     8     7   am
    20     1     2   ar
    21     3     4   ar
    22     7     9    2
    23    11    12   ar
    24    13    14   ar
    25    15    16   ar
    26     5     6   ar
    27    18    20    2
    28     8    10    1
    29    19    21    1
@<TRIPOS>MOLECULE
MolPort-010-777-188 MolPort-047-912-736 ChemDiv-G889-0544 MCULE-1618328952 MCULE-8804797512 PubChem-163337550 PubChem-50807320 ZINC000046053479
 28 29 0 0 0
SMALL
GASTEIGER

@<TRIPOS>ATOM
      1 C           8.7069   41.3875    7.2623 C.ar    1  UNL1        0.0542
      2 C           9.5986   40.5736    6.5175 C.ar    1  UNL1        0.0900
      3 C          10.9775   40.7052    6.7338 C.ar    1  UNL1        0.0224
      4 C          11.4841   41.6058    7.6792 C.ar    1  UNL1        0.0508
      5 C          10.5961   42.3798    8.4261 C.ar    1  UNL1        0.0160
      6 C           9.2213   42.2737    8.2177 C.ar    1  UNL1        0.0160
      7 C          13.8352   42.4631    7.1023 C.2     1  UNL1        0.2517
      8 N          12.8913   41.7491    7.9152 N.am    1  UNL1       -0.2803
      9 O          13.4518   43.0549    6.0563 O.2     1  UNL1       -0.2697
     10 H          13.2486   41.3108    8.7211 H       1  UNL1        0.1552
     11 C          15.2665   42.5137    7.4819 C.ar    1  UNL1        0.0811
     12 C          15.8255   41.6410    8.4419 C.ar    1  UNL1        0.1445
     13 C          17.1834   41.7304    8.7646 C.ar    1  UNL1        0.0298
     14 C          17.9964   42.6797    8.1430 C.ar    1  UNL1        0.0023
     15 C          17.4541   43.5463    7.1935 C.ar    1  UNL1        0.0003
     16 C          16.0989   43.4628    6.8662 C.ar    1  UNL1        0.0068
     17 F          15.0747   40.7034    9.0712 F       1  UNL1       -0.2040
     18 C           9.1492   39.5444    5.5547 C.2     1  UNL1        0.3393
     19 O           9.2098   38.1990    5.9001 O.3     1  UNL1       -0.4771
     20 O           8.6656   39.8652    4.4374 O.2     1  UNL1       -0.2450
     21 H           9.5668   37.9435    6.7279 H       1  UNL1        0.2954
     22 N           7.2901   41.3738    7.0351 N.pl3   1  UNL1       -0.3073
     23 C           6.6875   42.2338    6.0212 C.3     1  UNL1        0.0908
     24 C           6.5595   43.6536    6.5420 C.3     1  UNL1        0.0232
     25 C           6.4526   40.4379    7.7766 C.3     1  UNL1        0.0908
     26 C           5.5353   41.1707    8.7502 C.3     1  UNL1        0.0214
     27 C           5.2391   41.4238   11.2146 C.3     1  UNL1        0.0001
     28 C           6.2346   41.4532   10.0704 C.3     1  UNL1        0.0018
@<TRIPOS>BOND
     1    27    28    1
     2    28    26    1
     3    26    25    1
     4    25    22    1
     5    23    22    1
     6    23    24    1
     7     2     3   ar
     8     2    18    1
     9     4     8    1
    10     4     5   ar
    11     7    11    1
    12    12    17    1
    13    12    13   ar
    14    14    15   ar
    15    16    11   ar
    16     6     1   ar
    17    18    19    1
    18    22     1    1
    19     8     7   am
    20     1     2   ar
    21     3     4   ar
    22     7     9    2
    23    11    12   ar
    24    13    14   ar
    25    15    16   ar
    26     5     6   ar
    27    18    20    2
    28     8    10    1
    29    19    21    1
@<TRIPOS>MOLECULE
MolPort-010-777-188 MolPort-047-912-736 ChemDiv-G889-0544 MCULE-1618328952 MCULE-8804797512 PubChem-163337550 PubChem-50807320 ZINC000046053479
 28 29 0 0 0
SMALL
GASTEIGER

@<TRIPOS>ATOM
      1 C           6.6617   41.7735    8.8626 C.ar    1  UNL1        0.0542
      2 C           7.3189   41.1859    7.7513 C.ar    1  UNL1        0.0900
      3 C           8.6718   40.8382    7.8701 C.ar    1  UNL1        0.0224
      4 C           9.3743   41.0420    9.0645 C.ar    1  UNL1        0.0508
      5 C           8.7096   41.5937   10.1596 C.ar    1  UNL1        0.0160
      6 C           7.3673   41.9585   10.0587 C.ar    1  UNL1        0.0160
      7 C          11.4903   40.5339   10.4281 C.2     1  UNL1        0.2517
      8 N          10.7569   40.6878    9.2034 N.am    1  UNL1       -0.2803
      9 O          10.9165   40.7098   11.5377 O.2     1  UNL1       -0.2697
     10 H          11.2570   40.5337    8.3695 H       1  UNL1        0.1552
     11 C          12.9256   40.1667   10.4032 C.ar    1  UNL1        0.0811
     12 C          13.8016   40.6092    9.3871 C.ar    1  UNL1        0.1445
     13 C          15.1487   40.2337    9.4098 C.ar    1  UNL1        0.0298
     14 C          15.6384   39.4209   10.4336 C.ar    1  UNL1        0.0023
     15 C          14.7815   38.9786   11.4418 C.ar    1  UNL1        0.0003
     16 C          13.4351   39.3495   11.4255 C.ar    1  UNL1        0.0068
     17 F          13.3709   41.3998    8.3731 F       1  UNL1       -0.2040
     18 C           6.6363   40.8656    6.4786 C.2     1  UNL1        0.3393
     19 O           6.5028   41.8431    5.4990 O.3     1  UNL1       -0.4771
     20 O           6.2107   39.7045    6.2425 O.2     1  UNL1       -0.2450
     21 H           6.8142   42.7123    5.6588 H       1  UNL1        0.2954
     22 N           5.3054   42.2365    8.7902 N.pl3   1  UNL1       -0.3073
     23 C           5.0065   43.6244    8.4511 C.3     1  UNL1        0.0908
     24 C           6.2733   44.3512    8.0381 C.3     1  UNL1        0.0232
     25 C           4.2121   41.2915    8.9880 C.3     1  UNL1        0.0908
     26 C           3.2131   41.8112   10.0167 C.3     1  UNL1        0.0214
     27 C           4.0896   40.2064   11.7142 C.3     1  UNL1        0.0001
     28 C           3.7402   41.6558   11.4343 C.3     1  UNL1        0.0018
@<TRIPOS>BOND
     1    27    28    1
     2    28    26    1
     3    26    25    1
     4    25    22    1
     5    23    22    1
     6    23    24    1
     7     2     3   ar
     8     2    18    1
     9     4     8    1
    10     4     5   ar
    11     7    11    1
    12    12    17    1
    13    12    13   ar
    14    14    15   ar
    15    16    11   ar
    16     6     1   ar
    17    18    19    1
    18    22     1    1
    19     8     7   am
    20     1     2   ar
    21     3     4   ar
    22     7     9    2
    23    11    12   ar
    24    13    14   ar
    25    15    16   ar
    26     5     6   ar
    27    18    20    2
    28     8    10    1
    29    19    21    1
@<TRIPOS>MOLECULE
MolPort-010-777-188 MolPort-047-912-736 ChemDiv-G889-0544 MCULE-1618328952 MCULE-8804797512 PubChem-163337550 PubChem-50807320 ZINC000046053479
 28 29 0 0 0
SMALL
GASTEIGER

@<TRIPOS>ATOM
      1 C           8.9369   41.7599    9.3256 C.ar    1  UNL1        0.0542
      2 C           9.5943   40.9499    8.3644 C.ar    1  UNL1        0.0900
      3 C          10.9416   41.2040    8.0715 C.ar    1  UNL1        0.0224
      4 C          11.6486   42.2237    8.7209 C.ar    1  UNL1        0.0508
      5 C          10.9994   42.9948    9.6852 C.ar    1  UNL1        0.0160
      6 C           9.6561   42.7669    9.9824 C.ar    1  UNL1        0.0160
      7 C          13.6198   42.6911    7.1426 C.2     1  UNL1        0.2517
      8 N          13.0278   42.4935    8.4357 N.am    1  UNL1       -0.2803
      9 O          12.9063   42.6397    6.1036 O.2     1  UNL1       -0.2697
     10 H          13.6338   42.5492    9.2096 H       1  UNL1        0.1552
     11 C          15.0717   42.9578    7.0140 C.ar    1  UNL1        0.0811
     12 C          16.0252   42.3888    7.8874 C.ar    1  UNL1        0.1445
     13 C          17.3847   42.6730    7.7227 C.ar    1  UNL1        0.0298
     14 C          17.8106   43.5187    6.6970 C.ar    1  UNL1        0.0023
     15 C          16.8768   44.0856    5.8290 C.ar    1  UNL1        0.0003
     16 C          15.5176   43.8064    5.9875 C.ar    1  UNL1        0.0068
     17 F          15.6582   41.5619    8.8975 F       1  UNL1       -0.2040
     18 C           8.9478   39.8051    7.6863 C.2     1  UNL1        0.3393
     19 O           9.0912   38.5225    8.2034 O.3     1  UNL1       -0.4771
     20 O           8.2261   39.9744    6.6686 O.2     1  UNL1       -0.2450
     21 H           9.6247   38.3795    8.9603 H       1  UNL1        0.2954
     22 N           7.5384   41.6188    9.6145 N.pl3   1  UNL1       -0.3073
     23 C           7.0803   41.3387   10.9719 C.3     1  UNL1        0.0908
     24 C           5.5875   41.0647   10.9790 C.3     1  UNL1        0.0232
     25 C           6.5606   41.8286    8.5529 C.3     1  UNL1        0.0908
     26 C           6.1191   43.2871    8.4898 C.3     1  UNL1        0.0214
     27 C           6.9406   43.2437    6.1344 C.3     1  UNL1        0.0001
     28 C           6.8750   44.0529    7.4157 C.3     1  UNL1        0.0018
@<TRIPOS>BOND
     1    27    28    1
     2    28    26    1
     3    26    25    1
     4    25    22    1
     5    23    22    1
     6    23    24    1
     7     2     3   ar
     8     2    18    1
     9     4     8    1
    10     4     5   ar
    11     7    11    1
    12    12    17    1
    13    12    13   ar
    14    14    15   ar
    15    16    11   ar
    16     6     1   ar
    17    18    19    1
    18    22     1    1
    19     8     7   am
    20     1     2   ar
    21     3     4   ar
    22     7     9    2
    23    11    12   ar
    24    13    14   ar
    25    15    16   ar
    26     5     6   ar
    27    18    20    2
    28     8    10    1
    29    19    21    1
