@<TRIPOS>MOLECULE
MolPort-020-293-066 MCULE-4133020795 PubChem-110265533
 29 32 0 0 0
SMALL
GASTEIGER

@<TRIPOS>ATOM
      1 C          11.1405   41.3882    5.7471 C.ar    1  UNL1        0.1339
      2 C          11.1488   40.1020    5.1903 C.ar    1  UNL1        0.0345
      3 C           9.9771   39.3453    5.1835 C.ar    1  UNL1        0.0041
      4 C           8.8079   39.8728    5.7298 C.ar    1  UNL1        0.0149
      5 C           8.8287   41.1614    6.2804 C.ar    1  UNL1        0.0614
      6 N           9.9851   41.8785    6.2738 N.ar    1  UNL1       -0.2348
      7 C           7.5980   41.7681    6.8749 C.3     1  UNL1        0.0563
      8 C           7.3737   43.1811    6.3520 C.3     1  UNL1        0.0087
      9 C           6.1151   43.7571    6.9794 C.3     1  UNL1        0.0178
     10 C           6.2341   43.7254    8.5065 C.3     1  UNL1        0.0725
     11 C           7.6717   41.7729    8.4073 C.3     1  UNL1        0.0784
     12 N           6.4796   42.3723    9.0263 N.3     1  UNL1       -0.2660
     13 C           5.3096   41.5292    8.7916 C.3     1  UNL1        0.1368
     14 C           4.3719   41.6154    9.9476 C.ar    1  UNL1        0.1335
     15 C           2.7187   42.1892   11.1514 C.ar    1  UNL1        0.1186
     16 C           3.4737   41.2597   11.8398 C.ar    1  UNL1        0.0943
     17 N           3.2888   42.4112    9.9529 N.ar    1  UNL1       -0.2281
     18 N           4.5192   40.8965   11.0748 N.ar    1  UNL1       -0.3385
     19 H           5.2305   40.2511   11.2910 H       1  UNL1        0.1672
     20 N          12.3175   42.2079    5.7792 N.pl3   1  UNL1       -0.2680
     21 H          12.3505   42.9478    5.1306 H       1  UNL1        0.1565
     22 C          16.7894   43.6818    7.0245 C.3     1  UNL1        0.0522
     23 C          15.6247   42.7881    7.2545 C.ar    1  UNL1        0.0634
     24 C          15.6561   41.8549    8.2891 C.ar    1  UNL1        0.0296
     25 C          14.5446   41.0350    8.4725 C.ar    1  UNL1        0.0634
     26 C          13.4515   42.0741    6.6469 C.ar    1  UNL1        0.2211
     27 C          14.5366   40.0264    9.5638 C.3     1  UNL1        0.0522
     28 N          13.4681   41.1579    7.6535 N.ar    1  UNL1       -0.2179
     29 N          14.5291   42.8807    6.4562 N.ar    1  UNL1       -0.2179
@<TRIPOS>BOND
     1    22    23    1
     2    23    29   ar
     3    24    25   ar
     4    26    28   ar
     5    26    20    1
     6     1     6   ar
     7     2     3   ar
     8     4     5   ar
     9     7     5    1
    10     7     8    1
    11     8     9    1
    12     9    10    1
    13    10    12    1
    14    11    12    1
    15    11     7    1
    16    13    12    1
    17    13    14    1
    18    15    17   ar
    19    16    18   ar
    20    27    25    1
    21    20     1    1
    22    18    14   ar
    23    23    24   ar
    24    25    28   ar
    25    26    29   ar
    26     1     2   ar
    27     3     4   ar
    28     5     6   ar
    29    14    17   ar
    30    15    16   ar
    31    20    21    1
    32    18    19    1
@<TRIPOS>MOLECULE
MolPort-020-293-066 MCULE-4133020795 PubChem-110265533
 29 32 0 0 0
SMALL
GASTEIGER

@<TRIPOS>ATOM
      1 C           7.8090   40.7978    6.8127 C.ar    1  UNL1        0.1339
      2 C           7.4409   39.7775    5.9250 C.ar    1  UNL1        0.0345
      3 C           8.4200   38.9370    5.3956 C.ar    1  UNL1        0.0041
      4 C           9.7556   39.1174    5.7524 C.ar    1  UNL1        0.0149
      5 C          10.0950   40.1460    6.6416 C.ar    1  UNL1        0.0614
      6 N           9.1202   40.9516    7.1439 N.ar    1  UNL1       -0.2348
      7 C          11.5141   40.3746    7.0540 C.3     1  UNL1        0.0563
      8 C          11.9108   39.4485    8.1965 C.3     1  UNL1        0.0087
      9 C          13.3569   39.7133    8.5812 C.3     1  UNL1        0.0178
     10 C          13.5339   41.1887    8.9542 C.3     1  UNL1        0.0725
     11 C          11.7429   41.8387    7.4514 C.3     1  UNL1        0.0784
     12 N          13.1282   42.0977    7.8724 N.3     1  UNL1       -0.2660
     13 C          14.0368   41.9566    6.7369 C.3     1  UNL1        0.1368
     14 C          14.8690   43.1847    6.5869 C.ar    1  UNL1        0.1335
     15 C          15.4956   45.1220    5.9822 C.ar    1  UNL1        0.1186
     16 C          16.4611   44.5744    6.8043 C.ar    1  UNL1        0.0943
     17 N          14.4879   44.2405    5.8477 N.ar    1  UNL1       -0.2281
     18 N          16.0613   43.3482    7.1874 N.ar    1  UNL1       -0.3385
     19 H          16.5342   42.7145    7.7740 H       1  UNL1        0.1672
     20 N           6.8419   41.6892    7.3859 N.pl3   1  UNL1       -0.2680
     21 H           6.5147   42.4107    6.8014 H       1  UNL1        0.1565
     22 C           7.6159   41.4168   12.1867 C.3     1  UNL1        0.0522
     23 C           6.6698   41.5187   11.0455 C.ar    1  UNL1        0.0634
     24 C           5.2973   41.5739   11.2810 C.ar    1  UNL1        0.0296
     25 C           4.4427   41.6690   10.1846 C.ar    1  UNL1        0.0634
     26 C           6.2970   41.6510    8.7119 C.ar    1  UNL1        0.2211
     27 C           2.9724   41.7305   10.3911 C.3     1  UNL1        0.0522
     28 N           4.9539   41.7057    8.9268 N.ar    1  UNL1       -0.2179
     29 N           7.1427   41.5579    9.7723 N.ar    1  UNL1       -0.2179
@<TRIPOS>BOND
     1    22    23    1
     2    23    29   ar
     3    24    25   ar
     4    26    28   ar
     5    26    20    1
     6     1     6   ar
     7     2     3   ar
     8     4     5   ar
     9     7     5    1
    10     7     8    1
    11     8     9    1
    12     9    10    1
    13    10    12    1
    14    11    12    1
    15    11     7    1
    16    13    12    1
    17    13    14    1
    18    15    17   ar
    19    16    18   ar
    20    27    25    1
    21    20     1    1
    22    18    14   ar
    23    23    24   ar
    24    25    28   ar
    25    26    29   ar
    26     1     2   ar
    27     3     4   ar
    28     5     6   ar
    29    14    17   ar
    30    15    16   ar
    31    20    21    1
    32    18    19    1
@<TRIPOS>MOLECULE
MolPort-020-293-066 MCULE-4133020795 PubChem-110265533
 29 32 0 0 0
SMALL
GASTEIGER

@<TRIPOS>ATOM
      1 C          14.2668   40.2777    9.6507 C.ar    1  UNL1        0.1339
      2 C          14.4128   39.3967   10.7309 C.ar    1  UNL1        0.0345
      3 C          13.3486   39.2017   11.6112 C.ar    1  UNL1        0.0041
      4 C          12.1492   39.8836   11.4108 C.ar    1  UNL1        0.0149
      5 C          12.0314   40.7590   10.3228 C.ar    1  UNL1        0.0614
      6 N          13.0849   40.9307    9.4788 N.ar    1  UNL1       -0.2348
      7 C          10.7632   41.5093   10.0679 C.3     1  UNL1        0.0563
      8 C          11.0382   42.9877    9.8250 C.3     1  UNL1        0.0087
      9 C           9.7254   43.7094    9.5695 C.3     1  UNL1        0.0178
     10 C           8.7741   43.4919   10.7506 C.3     1  UNL1        0.0725
     11 C           9.7773   41.3350   11.2304 C.3     1  UNL1        0.0784
     12 N           8.5204   42.0685   11.0173 N.3     1  UNL1       -0.2660
     13 C           7.7731   41.4800    9.9082 C.3     1  UNL1        0.1368
     14 C           6.3115   41.5025   10.2021 C.ar    1  UNL1        0.1335
     15 C           4.2112   41.3120    9.9495 C.ar    1  UNL1        0.1186
     16 C           4.4723   41.7195   11.2431 C.ar    1  UNL1        0.0943
     17 N           5.3777   41.1737    9.2931 N.ar    1  UNL1       -0.2281
     18 N           5.8031   41.8379   11.4013 N.ar    1  UNL1       -0.3385
     19 H           6.2935   42.1086   12.2109 H       1  UNL1        0.1672
     20 N          15.3294   40.5139    8.7161 N.pl3   1  UNL1       -0.2680
     21 H          15.9011   39.7414    8.5026 H       1  UNL1        0.1565
     22 C          14.0037   44.0606    5.6527 C.3     1  UNL1        0.0522
     23 C          15.0138   43.4703    6.5688 C.ar    1  UNL1        0.0634
     24 C          16.2350   44.1122    6.7661 C.ar    1  UNL1        0.0296
     25 C          17.1560   43.5271    7.6326 C.ar    1  UNL1        0.0634
     26 C          15.6551   41.7453    8.0570 C.ar    1  UNL1        0.2211
     27 C          18.4701   44.1784    7.8714 C.3     1  UNL1        0.0522
     28 N          16.8522   42.3610    8.2594 N.ar    1  UNL1       -0.2179
     29 N          14.7470   42.3048    7.2141 N.ar    1  UNL1       -0.2179
@<TRIPOS>BOND
     1    22    23    1
     2    23    29   ar
     3    24    25   ar
     4    26    28   ar
     5    26    20    1
     6     1     6   ar
     7     2     3   ar
     8     4     5   ar
     9     7     5    1
    10     7     8    1
    11     8     9    1
    12     9    10    1
    13    10    12    1
    14    11    12    1
    15    11     7    1
    16    13    12    1
    17    13    14    1
    18    15    17   ar
    19    16    18   ar
    20    27    25    1
    21    20     1    1
    22    18    14   ar
    23    23    24   ar
    24    25    28   ar
    25    26    29   ar
    26     1     2   ar
    27     3     4   ar
    28     5     6   ar
    29    14    17   ar
    30    15    16   ar
    31    20    21    1
    32    18    19    1
@<TRIPOS>MOLECULE
MolPort-020-293-066 MCULE-4133020795 PubChem-110265533
 29 32 0 0 0
SMALL
GASTEIGER

@<TRIPOS>ATOM
      1 C          11.0633   41.4097    5.8867 C.ar    1  UNL1        0.1339
      2 C          11.1880   40.2377    5.1283 C.ar    1  UNL1        0.0345
      3 C          10.2139   39.2443    5.2281 C.ar    1  UNL1        0.0041
      4 C           9.1252   39.4239    6.0803 C.ar    1  UNL1        0.0149
      5 C           9.0265   40.6056    6.8273 C.ar    1  UNL1        0.0614
      6 N           9.9904   41.5589    6.7109 N.ar    1  UNL1       -0.2348
      7 C           7.8751   40.8419    7.7517 C.3     1  UNL1        0.0563
      8 C           6.5452   40.6559    7.0326 C.3     1  UNL1        0.0087
      9 C           5.4060   40.9035    8.0074 C.3     1  UNL1        0.0178
     10 C           5.5361   42.3043    8.6142 C.3     1  UNL1        0.0725
     11 C           7.9504   42.2402    8.3785 C.3     1  UNL1        0.0784
     12 N           6.8264   42.5107    9.2878 N.3     1  UNL1       -0.2660
     13 C           6.9138   41.6549   10.4688 C.3     1  UNL1        0.1368
     14 C           5.5536   41.4060   11.0267 C.ar    1  UNL1        0.1335
     15 C           3.5710   41.7482   11.7075 C.ar    1  UNL1        0.1186
     16 C           3.8575   40.4016   11.8190 C.ar    1  UNL1        0.0943
     17 N           4.6462   42.3815   11.2040 N.ar    1  UNL1       -0.2281
     18 N           5.1130   40.1870   11.3856 N.ar    1  UNL1       -0.3385
     19 H           5.5989   39.3319   11.3414 H       1  UNL1        0.1672
     20 N          12.0363   42.4621    5.8211 N.pl3   1  UNL1       -0.2680
     21 H          11.7861   43.2539    5.2922 H       1  UNL1        0.1565
     22 C          15.1381   40.5738    9.0666 C.3     1  UNL1        0.0522
     23 C          14.8408   41.5787    8.0131 C.ar    1  UNL1        0.0634
     24 C          15.8073   42.5150    7.6506 C.ar    1  UNL1        0.0296
     25 C          15.4902   43.4408    6.6587 C.ar    1  UNL1        0.0634
     26 C          13.3311   42.4941    6.4368 C.ar    1  UNL1        0.2211
     27 C          16.4917   44.4565    6.2421 C.3     1  UNL1        0.0522
     28 N          14.2653   43.4146    6.0725 N.ar    1  UNL1       -0.2179
     29 N          13.6266   41.5847    7.4033 N.ar    1  UNL1       -0.2179
@<TRIPOS>BOND
     1    22    23    1
     2    23    29   ar
     3    24    25   ar
     4    26    28   ar
     5    26    20    1
     6     1     6   ar
     7     2     3   ar
     8     4     5   ar
     9     7     5    1
    10     7     8    1
    11     8     9    1
    12     9    10    1
    13    10    12    1
    14    11    12    1
    15    11     7    1
    16    13    12    1
    17    13    14    1
    18    15    17   ar
    19    16    18   ar
    20    27    25    1
    21    20     1    1
    22    18    14   ar
    23    23    24   ar
    24    25    28   ar
    25    26    29   ar
    26     1     2   ar
    27     3     4   ar
    28     5     6   ar
    29    14    17   ar
    30    15    16   ar
    31    20    21    1
    32    18    19    1
@<TRIPOS>MOLECULE
MolPort-020-293-066 MCULE-4133020795 PubChem-110265533
 29 32 0 0 0
SMALL
GASTEIGER

@<TRIPOS>ATOM
      1 C          11.9233   41.7836    6.1923 C.ar    1  UNL1        0.1339
      2 C          11.5413   40.7229    5.3596 C.ar    1  UNL1        0.0345
      3 C          10.3110   40.0969    5.5598 C.ar    1  UNL1        0.0041
      4 C           9.4715   40.5299    6.5852 C.ar    1  UNL1        0.0149
      5 C           9.8794   41.5923    7.4031 C.ar    1  UNL1        0.0614
      6 N          11.0844   42.1858    7.1859 N.ar    1  UNL1       -0.2348
      7 C           9.0104   42.0913    8.5131 C.3     1  UNL1        0.0563
      8 C           9.8456   42.5528    9.7004 C.3     1  UNL1        0.0087
      9 C           8.9244   43.0518   10.8013 C.3     1  UNL1        0.0178
     10 C           7.9363   41.9482   11.1925 C.3     1  UNL1        0.0725
     11 C           8.0078   41.0165    8.9529 C.3     1  UNL1        0.0784
     12 N           7.1416   41.4706   10.0515 N.3     1  UNL1       -0.2660
     13 C           6.2500   42.5311    9.5875 C.3     1  UNL1        0.1368
     14 C           4.8311   42.1732    9.8732 C.ar    1  UNL1        0.1335
     15 C           2.8935   41.3288    9.6624 C.ar    1  UNL1        0.1186
     16 C           2.9540   42.0204   10.8565 C.ar    1  UNL1        0.0943
     17 N           4.0840   41.4259    9.0427 N.ar    1  UNL1       -0.2281
     18 N           4.1825   42.5529   10.9886 N.ar    1  UNL1       -0.3385
     19 H           4.5283   43.0969   11.7328 H       1  UNL1        0.1672
     20 N          13.1770   42.4618    6.0292 N.pl3   1  UNL1       -0.2680
     21 H          13.2410   43.0810    5.2666 H       1  UNL1        0.1565
     22 C          15.5111   40.1451    9.6218 C.3     1  UNL1        0.0522
     23 C          15.4847   41.2182    8.5942 C.ar    1  UNL1        0.0634
     24 C          16.5772   42.0712    8.4494 C.ar    1  UNL1        0.0296
     25 C          16.5142   43.0649    7.4747 C.ar    1  UNL1        0.0634
     26 C          14.3478   42.3419    6.8487 C.ar    1  UNL1        0.2211
     27 C          17.6571   43.9958    7.2868 C.3     1  UNL1        0.0522
     28 N          15.4076   43.1825    6.6959 N.ar    1  UNL1       -0.2179
     29 N          14.3955   41.3677    7.7959 N.ar    1  UNL1       -0.2179
@<TRIPOS>BOND
     1    22    23    1
     2    23    29   ar
     3    24    25   ar
     4    26    28   ar
     5    26    20    1
     6     1     6   ar
     7     2     3   ar
     8     4     5   ar
     9     7     5    1
    10     7     8    1
    11     8     9    1
    12     9    10    1
    13    10    12    1
    14    11    12    1
    15    11     7    1
    16    13    12    1
    17    13    14    1
    18    15    17   ar
    19    16    18   ar
    20    27    25    1
    21    20     1    1
    22    18    14   ar
    23    23    24   ar
    24    25    28   ar
    25    26    29   ar
    26     1     2   ar
    27     3     4   ar
    28     5     6   ar
    29    14    17   ar
    30    15    16   ar
    31    20    21    1
    32    18    19    1
@<TRIPOS>MOLECULE
MolPort-020-293-066 MCULE-4133020795 PubChem-110265533
 29 32 0 0 0
SMALL
GASTEIGER

@<TRIPOS>ATOM
      1 C          16.0317   41.9945    8.1136 C.ar    1  UNL1        0.1339
      2 C          16.1522   43.0292    7.1759 C.ar    1  UNL1        0.0345
      3 C          15.0194   43.4854    6.5021 C.ar    1  UNL1        0.0041
      4 C          13.7772   42.9097    6.7656 C.ar    1  UNL1        0.0149
      5 C          13.6862   41.8762    7.7077 C.ar    1  UNL1        0.0614
      6 N          14.8069   41.4503    8.3512 N.ar    1  UNL1       -0.2348
      7 C          12.3745   41.2314    8.0237 C.3     1  UNL1        0.0563
      8 C          12.1510   41.1479    9.5281 C.3     1  UNL1        0.0087
      9 C          10.8092   40.4893    9.8027 C.3     1  UNL1        0.0178
     10 C          10.7628   39.1083    9.1409 C.3     1  UNL1        0.0725
     11 C          12.2810   39.8359    7.3932 C.3     1  UNL1        0.0784
     12 N          11.0053   39.1675    7.6920 N.3     1  UNL1       -0.2660
     13 C           9.9031   39.8624    7.0310 C.3     1  UNL1        0.1368
     14 C           9.8862   39.5357    5.5763 C.ar    1  UNL1        0.1335
     15 C           9.3530   38.6337    3.7288 C.ar    1  UNL1        0.1186
     16 C          10.3425   39.5703    3.5017 C.ar    1  UNL1        0.0943
     17 N           9.0649   38.6152    5.0430 N.ar    1  UNL1       -0.2281
     18 N          10.6774   40.1414    4.6729 N.ar    1  UNL1       -0.3385
     19 H          11.3490   40.8434    4.8325 H       1  UNL1        0.1672
     20 N          17.1645   41.4887    8.8341 N.pl3   1  UNL1       -0.2680
     21 H          17.9826   42.0353    8.7985 H       1  UNL1        0.1565
     22 C          15.0408   38.3951   11.9390 C.3     1  UNL1        0.0522
     23 C          16.2138   38.7736   11.1090 C.ar    1  UNL1        0.0634
     24 C          17.3461   37.9613   11.0914 C.ar    1  UNL1        0.0296
     25 C          18.4254   38.3504   10.3007 C.ar    1  UNL1        0.0634
     26 C          17.2431   40.2789    9.6002 C.ar    1  UNL1        0.2211
     27 C          19.6522   37.5132   10.2530 C.3     1  UNL1        0.0522
     28 N          18.3559   39.4952    9.5732 N.ar    1  UNL1       -0.2179
     29 N          16.1825   39.9116   10.3673 N.ar    1  UNL1       -0.2179
@<TRIPOS>BOND
     1    22    23    1
     2    23    29   ar
     3    24    25   ar
     4    26    28   ar
     5    26    20    1
     6     1     6   ar
     7     2     3   ar
     8     4     5   ar
     9     7     5    1
    10     7     8    1
    11     8     9    1
    12     9    10    1
    13    10    12    1
    14    11    12    1
    15    11     7    1
    16    13    12    1
    17    13    14    1
    18    15    17   ar
    19    16    18   ar
    20    27    25    1
    21    20     1    1
    22    18    14   ar
    23    23    24   ar
    24    25    28   ar
    25    26    29   ar
    26     1     2   ar
    27     3     4   ar
    28     5     6   ar
    29    14    17   ar
    30    15    16   ar
    31    20    21    1
    32    18    19    1
@<TRIPOS>MOLECULE
MolPort-020-293-066 MCULE-4133020795 PubChem-110265533
 29 32 0 0 0
SMALL
GASTEIGER

@<TRIPOS>ATOM
      1 C          17.0611   41.9243    8.4504 C.ar    1  UNL1        0.1339
      2 C          17.4213   43.2067    8.0142 C.ar    1  UNL1        0.0345
      3 C          16.5025   43.9764    7.3009 C.ar    1  UNL1        0.0041
      4 C          15.2345   43.4655    7.0272 C.ar    1  UNL1        0.0149
      5 C          14.9016   42.1800    7.4750 C.ar    1  UNL1        0.0614
      6 N          15.8166   41.4502    8.1693 N.ar    1  UNL1       -0.2348
      7 C          13.5528   41.5929    7.2066 C.3     1  UNL1        0.0563
      8 C          12.6943   42.5422    6.3806 C.3     1  UNL1        0.0087
      9 C          11.3368   41.9062    6.1308 C.3     1  UNL1        0.0178
     10 C          10.6745   41.5529    7.4664 C.3     1  UNL1        0.0725
     11 C          12.8390   41.2320    8.5158 C.3     1  UNL1        0.0784
     12 N          11.5031   40.6597    8.2893 N.3     1  UNL1       -0.2660
     13 C          11.6152   39.3524    7.6464 C.3     1  UNL1        0.1368
     14 C          11.6651   38.2745    8.6754 C.ar    1  UNL1        0.1335
     15 C          12.4254   36.7885    9.9888 C.ar    1  UNL1        0.1186
     16 C          11.0571   36.8770   10.1554 C.ar    1  UNL1        0.0943
     17 N          12.8079   37.6757    9.0523 N.ar    1  UNL1       -0.2281
     18 N          10.5780   37.8199    9.3238 N.ar    1  UNL1       -0.3385
     19 H           9.6439   38.1110    9.2147 H       1  UNL1        0.1672
     20 N          17.9678   41.0919    9.1877 N.pl3   1  UNL1       -0.2680
     21 H          18.9084   41.3819    9.2054 H       1  UNL1        0.1565
     22 C          14.8544   38.5960   11.9803 C.3     1  UNL1        0.0522
     23 C          16.1514   38.6709   11.2589 C.ar    1  UNL1        0.0634
     24 C          17.0292   37.5889   11.2897 C.ar    1  UNL1        0.0296
     25 C          18.2356   37.6978   10.6009 C.ar    1  UNL1        0.0634
     26 C          17.6622   39.8864    9.9018 C.ar    1  UNL1        0.2211
     27 C          19.2002   36.5675   10.6077 C.3     1  UNL1        0.0522
     28 N          18.5295   38.8374    9.9230 N.ar    1  UNL1       -0.2179
     29 N          16.4815   39.7942   10.5694 N.ar    1  UNL1       -0.2179
@<TRIPOS>BOND
     1    22    23    1
     2    23    29   ar
     3    24    25   ar
     4    26    28   ar
     5    26    20    1
     6     1     6   ar
     7     2     3   ar
     8     4     5   ar
     9     7     5    1
    10     7     8    1
    11     8     9    1
    12     9    10    1
    13    10    12    1
    14    11    12    1
    15    11     7    1
    16    13    12    1
    17    13    14    1
    18    15    17   ar
    19    16    18   ar
    20    27    25    1
    21    20     1    1
    22    18    14   ar
    23    23    24   ar
    24    25    28   ar
    25    26    29   ar
    26     1     2   ar
    27     3     4   ar
    28     5     6   ar
    29    14    17   ar
    30    15    16   ar
    31    20    21    1
    32    18    19    1
@<TRIPOS>MOLECULE
MolPort-020-293-066 MCULE-4133020795 PubChem-110265533
 29 32 0 0 0
SMALL
GASTEIGER

@<TRIPOS>ATOM
      1 C          15.8494   42.0356    7.9995 C.ar    1  UNL1        0.1339
      2 C          16.1813   43.1407    7.2040 C.ar    1  UNL1        0.0345
      3 C          15.1894   43.7763    6.4571 C.ar    1  UNL1        0.0041
      4 C          13.8771   43.3085    6.5071 C.ar    1  UNL1        0.0149
      5 C          13.5738   42.2010    7.3106 C.ar    1  UNL1        0.0614
      6 N          14.5603   41.5997    8.0295 N.ar    1  UNL1       -0.2348
      7 C          12.1798   41.6667    7.3965 C.3     1  UNL1        0.0563
      8 C          11.6189   41.8173    8.8048 C.3     1  UNL1        0.0087
      9 C          10.2039   41.2645    8.8457 C.3     1  UNL1        0.0178
     10 C          10.2029   39.8037    8.3837 C.3     1  UNL1        0.0725
     11 C          12.1249   40.1982    6.9558 C.3     1  UNL1        0.0784
     12 N          10.7680   39.6365    7.0368 N.3     1  UNL1       -0.2660
     13 C           9.8978   40.2717    6.0498 C.3     1  UNL1        0.1368
     14 C           9.7712   39.4069    4.8418 C.ar    1  UNL1        0.1335
     15 C           9.4183   38.7997    2.8373 C.ar    1  UNL1        0.1186
     16 C           9.8092   37.7005    3.5768 C.ar    1  UNL1        0.0943
     17 N           9.3967   39.8790    3.6405 N.ar    1  UNL1       -0.2281
     18 N          10.0338   38.0878    4.8456 N.ar    1  UNL1       -0.3385
     19 H          10.3244   37.5319    5.6044 H       1  UNL1        0.1672
     20 N          16.8308   41.3463    8.7869 N.pl3   1  UNL1       -0.2680
     21 H          17.7522   41.6886    8.7313 H       1  UNL1        0.1565
     22 C          18.6179   37.2995   10.8242 C.3     1  UNL1        0.0522
     23 C          17.4904   38.2491   10.6371 C.ar    1  UNL1        0.0634
     24 C          16.2777   38.0276   11.2871 C.ar    1  UNL1        0.0296
     25 C          15.2445   38.9407   11.0861 C.ar    1  UNL1        0.0634
     26 C          16.6249   40.2162    9.6455 C.ar    1  UNL1        0.2211
     27 C          13.9352   38.7421   11.7600 C.3     1  UNL1        0.0522
     28 N          15.4346   40.0126   10.2739 N.ar    1  UNL1       -0.2179
     29 N          17.6417   39.3334    9.8324 N.ar    1  UNL1       -0.2179
@<TRIPOS>BOND
     1    22    23    1
     2    23    29   ar
     3    24    25   ar
     4    26    28   ar
     5    26    20    1
     6     1     6   ar
     7     2     3   ar
     8     4     5   ar
     9     7     5    1
    10     7     8    1
    11     8     9    1
    12     9    10    1
    13    10    12    1
    14    11    12    1
    15    11     7    1
    16    13    12    1
    17    13    14    1
    18    15    17   ar
    19    16    18   ar
    20    27    25    1
    21    20     1    1
    22    18    14   ar
    23    23    24   ar
    24    25    28   ar
    25    26    29   ar
    26     1     2   ar
    27     3     4   ar
    28     5     6   ar
    29    14    17   ar
    30    15    16   ar
    31    20    21    1
    32    18    19    1
@<TRIPOS>MOLECULE
MolPort-020-293-066 MCULE-4133020795 PubChem-110265533
 29 32 0 0 0
SMALL
GASTEIGER

@<TRIPOS>ATOM
      1 C          14.0517   40.4357    9.5126 C.ar    1  UNL1        0.1339
      2 C          14.0556   39.7832   10.7530 C.ar    1  UNL1        0.0345
      3 C          12.8556   39.5991   11.4398 C.ar    1  UNL1        0.0041
      4 C          11.6628   40.0649   10.8885 C.ar    1  UNL1        0.0149
      5 C          11.6885   40.7144    9.6470 C.ar    1  UNL1        0.0614
      6 N          12.8728   40.8805    8.9977 N.ar    1  UNL1       -0.2348
      7 C          10.4334   41.2279    9.0169 C.3     1  UNL1        0.0563
      8 C           9.5397   41.9078   10.0461 C.3     1  UNL1        0.0087
      9 C           8.2799   42.4145    9.3637 C.3     1  UNL1        0.0178
     10 C           7.5648   41.2540    8.6643 C.3     1  UNL1        0.0725
     11 C           9.6699   40.0994    8.3115 C.3     1  UNL1        0.0784
     12 N           8.4231   40.5678    7.6875 N.3     1  UNL1       -0.2660
     13 C           8.7208   41.4627    6.5716 C.3     1  UNL1        0.1368
     14 C           9.3283   40.6975    5.4452 C.ar    1  UNL1        0.1335
     15 C           9.5589   39.2962    3.8658 C.ar    1  UNL1        0.1186
     16 C          10.7115   40.0504    3.9682 C.ar    1  UNL1        0.0943
     17 N           8.6842   39.7092    4.8012 N.ar    1  UNL1       -0.2281
     18 N          10.5625   40.9384    4.9681 N.ar    1  UNL1       -0.3385
     19 H          11.2099   41.6115    5.2796 H       1  UNL1        0.1672
     20 N          15.2573   40.6504    8.7652 N.pl3   1  UNL1       -0.2680
     21 H          15.8890   39.8960    8.7318 H       1  UNL1        0.1565
     22 C          14.1413   44.1197    5.5343 C.3     1  UNL1        0.0522
     23 C          15.1095   43.5242    6.4914 C.ar    1  UNL1        0.0634
     24 C          16.3554   44.1185    6.6827 C.ar    1  UNL1        0.0296
     25 C          17.2354   43.5300    7.5887 C.ar    1  UNL1        0.0634
     26 C          15.6488   41.8368    8.0611 C.ar    1  UNL1        0.2211
     27 C          18.5739   44.1314    7.8226 C.3     1  UNL1        0.0522
     28 N          16.8693   42.4064    8.2581 N.ar    1  UNL1       -0.2179
     29 N          14.7800   42.4002    7.1801 N.ar    1  UNL1       -0.2179
@<TRIPOS>BOND
     1    22    23    1
     2    23    29   ar
     3    24    25   ar
     4    26    28   ar
     5    26    20    1
     6     1     6   ar
     7     2     3   ar
     8     4     5   ar
     9     7     5    1
    10     7     8    1
    11     8     9    1
    12     9    10    1
    13    10    12    1
    14    11    12    1
    15    11     7    1
    16    13    12    1
    17    13    14    1
    18    15    17   ar
    19    16    18   ar
    20    27    25    1
    21    20     1    1
    22    18    14   ar
    23    23    24   ar
    24    25    28   ar
    25    26    29   ar
    26     1     2   ar
    27     3     4   ar
    28     5     6   ar
    29    14    17   ar
    30    15    16   ar
    31    20    21    1
    32    18    19    1
@<TRIPOS>MOLECULE
MolPort-020-293-066 MCULE-4133020795 PubChem-110265533
 29 32 0 0 0
SMALL
GASTEIGER

@<TRIPOS>ATOM
      1 C          16.2317   42.0051    8.1744 C.ar    1  UNL1        0.1339
      2 C          16.5728   43.1648    7.4650 C.ar    1  UNL1        0.0345
      3 C          15.6062   43.8125    6.6957 C.ar    1  UNL1        0.0041
      4 C          14.3100   43.3026    6.6379 C.ar    1  UNL1        0.0149
      5 C          13.9971   42.1410    7.3569 C.ar    1  UNL1        0.0614
      6 N          14.9588   41.5289    8.1000 N.ar    1  UNL1       -0.2348
      7 C          12.6195   41.5602    7.3262 C.3     1  UNL1        0.0563
      8 C          12.1386   41.3606    5.8946 C.3     1  UNL1        0.0087
      9 C          10.7391   40.7687    5.9108 C.3     1  UNL1        0.0178
     10 C           9.7988   41.6788    6.7076 C.3     1  UNL1        0.0725
     11 C          11.6326   42.4427    8.1013 C.3     1  UNL1        0.0784
     12 N          10.2635   41.9054    8.0838 N.3     1  UNL1       -0.2660
     13 C          10.1997   40.6582    8.8422 C.3     1  UNL1        0.1368
     14 C           9.8693   40.9388   10.2689 C.ar    1  UNL1        0.1335
     15 C          10.0928   41.2165   12.3628 C.ar    1  UNL1        0.1186
     16 C           8.7750   41.4452   12.0180 C.ar    1  UNL1        0.0943
     17 N          10.7837   40.8976   11.2530 N.ar    1  UNL1       -0.2281
     18 N           8.6362   41.2704   10.6912 N.ar    1  UNL1       -0.3385
     19 H           7.8179   41.3641   10.1519 H       1  UNL1        0.1672
     20 N          17.1873   41.3011    8.9804 N.pl3   1  UNL1       -0.2680
     21 H          18.1006   41.6682    8.9932 H       1  UNL1        0.1565
     22 C          14.1822   38.6861   11.7826 C.3     1  UNL1        0.0522
     23 C          15.5078   38.8512   11.1317 C.ar    1  UNL1        0.0634
     24 C          16.4915   37.8780   11.2975 C.ar    1  UNL1        0.0296
     25 C          17.7214   38.0692   10.6713 C.ar    1  UNL1        0.0634
     26 C          16.9657   40.1243    9.7696 C.ar    1  UNL1        0.2211
     27 C          18.7979   37.0561   10.8220 C.3     1  UNL1        0.0522
     28 N          17.9361   39.1820    9.9227 N.ar    1  UNL1       -0.2179
     29 N          15.7608   39.9509   10.3749 N.ar    1  UNL1       -0.2179
@<TRIPOS>BOND
     1    22    23    1
     2    23    29   ar
     3    24    25   ar
     4    26    28   ar
     5    26    20    1
     6     1     6   ar
     7     2     3   ar
     8     4     5   ar
     9     7     5    1
    10     7     8    1
    11     8     9    1
    12     9    10    1
    13    10    12    1
    14    11    12    1
    15    11     7    1
    16    13    12    1
    17    13    14    1
    18    15    17   ar
    19    16    18   ar
    20    27    25    1
    21    20     1    1
    22    18    14   ar
    23    23    24   ar
    24    25    28   ar
    25    26    29   ar
    26     1     2   ar
    27     3     4   ar
    28     5     6   ar
    29    14    17   ar
    30    15    16   ar
    31    20    21    1
    32    18    19    1
