@<TRIPOS>MOLECULE
MolPort-000-016-465 892171 CHEMBL1300667 MCULE-5639757617 PubChem-1147161 ZINC000000892171 ZINC00892171
 31 33 0 0 0
SMALL
GASTEIGER

@<TRIPOS>ATOM
      1 C           8.5816   39.6457    6.0575 C.2     1  UNL1        0.2376
      2 O           7.6906   39.0415    5.4041 O.2     1  UNL1       -0.2738
      3 N           9.9361   39.6193    5.5789 N.am    1  UNL1       -0.2832
      4 H          10.0841   39.1377    4.7331 H       1  UNL1        0.1549
      5 C          13.3926   41.4129    7.2851 C.ar    1  UNL1        0.0504
      6 C          12.9121   40.2021    7.7990 C.ar    1  UNL1        0.0159
      7 C          11.7757   39.6034    7.2500 C.ar    1  UNL1        0.0159
      8 C          11.1014   40.2068    6.1784 C.ar    1  UNL1        0.0504
      9 C          11.5869   41.4135    5.6604 C.ar    1  UNL1        0.0159
     10 C          12.7229   42.0150    6.2095 C.ar    1  UNL1        0.0159
     11 C          15.4766   42.9077    7.2554 C.2     1  UNL1        0.2261
     12 O          15.3081   43.2898    6.0663 O.2     1  UNL1       -0.2748
     13 N          14.5569   42.0022    7.8809 N.am    1  UNL1       -0.2839
     14 H          14.7441   41.7598    8.8165 H       1  UNL1        0.1549
     15 C          17.6969   42.3008    8.1409 C.3     1  UNL1        0.0101
     16 C          16.6525   43.3959    8.0299 C.3     1  UNL1        0.0854
     17 C           8.1870   40.3826    7.2927 C.3     1  UNL1        0.1502
     18 S           8.3644   42.1689    7.0417 S.3     1  UNL1       -0.0641
     19 C           8.9738   42.3982    8.7118 C.ar    1  UNL1        0.2151
     20 N          10.2797   42.5397    9.0028 N.ar    1  UNL1       -0.1011
     21 N          10.3201   42.7619   10.3090 N.ar    1  UNL1       -0.0218
     22 N           9.0920   42.7645   10.8065 N.ar    1  UNL1       -0.0382
     23 N           8.2294   42.5334    9.8316 N.ar    1  UNL1       -0.1862
     24 C           6.8018   42.4811   10.0160 C.ar    1  UNL1        0.0868
     25 C           6.2252   41.7372   11.0560 C.ar    1  UNL1        0.0224
     26 C           4.8373   41.7099   11.2256 C.ar    1  UNL1        0.0384
     27 C           4.0038   42.4317   10.3619 C.ar    1  UNL1        0.1388
     28 C           4.5747   43.1829    9.3230 C.ar    1  UNL1        0.0384
     29 C           5.9622   43.2066    9.1546 C.ar    1  UNL1        0.0224
     30 C           2.0277   42.1618   11.8362 C.3     1  UNL1        0.2525
     31 O           2.6193   42.3924   10.5597 O.3     1  UNL1       -0.4714
@<TRIPOS>BOND
     1    15    16    1
     2    16    11    1
     3    11    13   am
     4     6     7   ar
     5     8     3    1
     6     8     9   ar
     7    17     1    1
     8    17    18    1
     9    19    18    1
    10    25    26   ar
    11    27    31    1
    12    27    28   ar
    13    30    31    1
    14    29    24   ar
    15    10     5   ar
    16    13     5    1
    17     3     1   am
    18    20    21   ar
    19    23    22   ar
    20    23    24    1
    21    23    19   ar
    22    11    12    2
    23     5     6   ar
    24     7     8   ar
    25     1     2    2
    26    19    20   ar
    27    24    25   ar
    28    26    27   ar
    29    28    29   ar
    30     9    10   ar
    31    21    22   ar
    32    13    14    1
    33     3     4    1
@<TRIPOS>MOLECULE
MolPort-000-016-465 892171 CHEMBL1300667 MCULE-5639757617 PubChem-1147161 ZINC000000892171 ZINC00892171
 31 33 0 0 0
SMALL
GASTEIGER

@<TRIPOS>ATOM
      1 C          13.9234   38.7628   11.6293 C.2     1  UNL1        0.2376
      2 O          14.8538   38.8275   12.4755 O.2     1  UNL1       -0.2738
      3 N          13.0507   39.8923   11.4647 N.am    1  UNL1       -0.2832
      4 H          13.2546   40.6780   12.0218 H       1  UNL1        0.1549
      5 C           9.6524   40.3019    8.9431 C.ar    1  UNL1        0.0504
      6 C          10.7487   39.5433    8.5145 C.ar    1  UNL1        0.0159
      7 C          11.8729   39.4030    9.3316 C.ar    1  UNL1        0.0159
      8 C          11.9187   40.0199   10.5903 C.ar    1  UNL1        0.0504
      9 C          10.8191   40.7719   11.0210 C.ar    1  UNL1        0.0159
     10 C           9.6939   40.9149   10.2041 C.ar    1  UNL1        0.0159
     11 C           7.9193   41.6521    7.6196 C.2     1  UNL1        0.2261
     12 O           8.3841   42.7726    7.9611 O.2     1  UNL1       -0.2748
     13 N           8.5195   40.4308    8.0726 N.am    1  UNL1       -0.2839
     14 H           8.1115   39.5938    7.7528 H       1  UNL1        0.1549
     15 C           6.5234   42.9120    6.0239 C.3     1  UNL1        0.0101
     16 C           6.7219   41.5863    6.7348 C.3     1  UNL1        0.0854
     17 C          13.7804   37.5202   10.8169 C.3     1  UNL1        0.1502
     18 S          14.5553   37.7391    9.1930 S.3     1  UNL1       -0.0641
     19 C          16.1229   38.1831    9.9404 C.ar    1  UNL1        0.2151
     20 N          16.8519   37.3265   10.6787 N.ar    1  UNL1       -0.1011
     21 N          17.9593   37.9888   10.9826 N.ar    1  UNL1       -0.0218
     22 N          17.9223   39.2019   10.4508 N.ar    1  UNL1       -0.0382
     23 N          16.7826   39.3541    9.7982 N.ar    1  UNL1       -0.1862
     24 C          16.4165   40.5517    9.0867 C.ar    1  UNL1        0.0868
     25 C          17.3533   41.5622    8.8245 C.ar    1  UNL1        0.0224
     26 C          16.9805   42.7117    8.1206 C.ar    1  UNL1        0.0384
     27 C          15.6663   42.8663    7.6615 C.ar    1  UNL1        0.1388
     28 C          14.7257   41.8562    7.9152 C.ar    1  UNL1        0.0384
     29 C          15.1006   40.7092    8.6209 C.ar    1  UNL1        0.0224
     30 C          14.2588   44.0615    6.0058 C.3     1  UNL1        0.2525
     31 O          15.3233   44.0231    6.9533 O.3     1  UNL1       -0.4714
@<TRIPOS>BOND
     1    15    16    1
     2    16    11    1
     3    11    13   am
     4     6     7   ar
     5     8     3    1
     6     8     9   ar
     7    17     1    1
     8    17    18    1
     9    19    18    1
    10    25    26   ar
    11    27    31    1
    12    27    28   ar
    13    30    31    1
    14    29    24   ar
    15    10     5   ar
    16    13     5    1
    17     3     1   am
    18    20    21   ar
    19    23    22   ar
    20    23    24    1
    21    23    19   ar
    22    11    12    2
    23     5     6   ar
    24     7     8   ar
    25     1     2    2
    26    19    20   ar
    27    24    25   ar
    28    26    27   ar
    29    28    29   ar
    30     9    10   ar
    31    21    22   ar
    32    13    14    1
    33     3     4    1
@<TRIPOS>MOLECULE
MolPort-000-016-465 892171 CHEMBL1300667 MCULE-5639757617 PubChem-1147161 ZINC000000892171 ZINC00892171
 31 33 0 0 0
SMALL
GASTEIGER

@<TRIPOS>ATOM
      1 C          13.1576   37.9600    8.7419 C.2     1  UNL1        0.2376
      2 O          14.0900   37.1393    8.5350 O.2     1  UNL1       -0.2738
      3 N          12.5783   38.6535    7.6248 N.am    1  UNL1       -0.2832
      4 H          12.9396   38.4198    6.7393 H       1  UNL1        0.1549
      5 C           9.5585   41.6461    7.6287 C.ar    1  UNL1        0.0504
      6 C           9.3480   40.4452    8.3176 C.ar    1  UNL1        0.0159
      7 C          10.3304   39.4523    8.3220 C.ar    1  UNL1        0.0159
      8 C          11.5390   39.6445    7.6367 C.ar    1  UNL1        0.0504
      9 C          11.7514   40.8485    6.9545 C.ar    1  UNL1        0.0159
     10 C          10.7689   41.8426    6.9475 C.ar    1  UNL1        0.0159
     11 C           7.4546   42.7750    6.6918 C.2     1  UNL1        0.2261
     12 O           7.3300   41.9706    5.7297 O.2     1  UNL1       -0.2748
     13 N           8.5228   42.6386    7.6392 N.am    1  UNL1       -0.2839
     14 H           8.5478   43.2944    8.3730 H       1  UNL1        0.1549
     15 C           6.1507   44.0922    8.3189 C.3     1  UNL1        0.0101
     16 C           6.4828   43.8935    6.8517 C.3     1  UNL1        0.0854
     17 C          12.6790   38.1615   10.1401 C.3     1  UNL1        0.1502
     18 S          13.1579   39.8046   10.7370 S.3     1  UNL1       -0.0641
     19 C          14.8542   39.2804   10.9838 C.ar    1  UNL1        0.2151
     20 N          15.2001   38.2882   11.8241 N.ar    1  UNL1       -0.1011
     21 N          16.5094   38.1479   11.6722 N.ar    1  UNL1       -0.0218
     22 N          16.9563   39.0115   10.7719 N.ar    1  UNL1       -0.0382
     23 N          15.9442   39.7374   10.3285 N.ar    1  UNL1       -0.1862
     24 C          16.0694   40.7665    9.3286 C.ar    1  UNL1        0.0868
     25 C          14.9773   41.1569    8.5397 C.ar    1  UNL1        0.0224
     26 C          15.1168   42.1674    7.5830 C.ar    1  UNL1        0.0384
     27 C          16.3490   42.8088    7.4044 C.ar    1  UNL1        0.1388
     28 C          17.4441   42.4271    8.1948 C.ar    1  UNL1        0.0384
     29 C          17.3024   41.4152    9.1488 C.ar    1  UNL1        0.0224
     30 C          15.4741   44.0387    5.4365 C.3     1  UNL1        0.2525
     31 O          16.4577   43.8216    6.4454 O.3     1  UNL1       -0.4714
@<TRIPOS>BOND
     1    15    16    1
     2    16    11    1
     3    11    13   am
     4     6     7   ar
     5     8     3    1
     6     8     9   ar
     7    17     1    1
     8    17    18    1
     9    19    18    1
    10    25    26   ar
    11    27    31    1
    12    27    28   ar
    13    30    31    1
    14    29    24   ar
    15    10     5   ar
    16    13     5    1
    17     3     1   am
    18    20    21   ar
    19    23    22   ar
    20    23    24    1
    21    23    19   ar
    22    11    12    2
    23     5     6   ar
    24     7     8   ar
    25     1     2    2
    26    19    20   ar
    27    24    25   ar
    28    26    27   ar
    29    28    29   ar
    30     9    10   ar
    31    21    22   ar
    32    13    14    1
    33     3     4    1
@<TRIPOS>MOLECULE
MolPort-000-016-465 892171 CHEMBL1300667 MCULE-5639757617 PubChem-1147161 ZINC000000892171 ZINC00892171
 31 33 0 0 0
SMALL
GASTEIGER

@<TRIPOS>ATOM
      1 C           9.3361   38.8666    6.7551 C.2     1  UNL1        0.2376
      2 O           8.6189   37.8346    6.8372 O.2     1  UNL1       -0.2738
      3 N          10.7188   38.7872    7.1376 N.am    1  UNL1       -0.2832
      4 H          11.0352   37.9003    7.4251 H       1  UNL1        0.1549
      5 C          13.5889   41.9234    7.1051 C.ar    1  UNL1        0.0504
      6 C          13.6873   40.9009    8.0569 C.ar    1  UNL1        0.0159
      7 C          12.7493   39.8661    8.0809 C.ar    1  UNL1        0.0159
      8 C          11.6975   39.8379    7.1535 C.ar    1  UNL1        0.0504
      9 C          11.6045   40.8566    6.1976 C.ar    1  UNL1        0.0159
     10 C          12.5411   41.8939    6.1730 C.ar    1  UNL1        0.0159
     11 C          14.9595   43.7932    6.0079 C.2     1  UNL1        0.2261
     12 O          14.4300   43.6521    4.8731 O.2     1  UNL1       -0.2748
     13 N          14.5654   42.9742    7.1174 N.am    1  UNL1       -0.2839
     14 H          15.0115   43.1517    7.9769 H       1  UNL1        0.1549
     15 C          17.3445   44.1551    6.5210 C.3     1  UNL1        0.0101
     16 C          16.0184   44.8227    6.2074 C.3     1  UNL1        0.0854
     17 C           8.7220   40.1254    6.2426 C.3     1  UNL1        0.1502
     18 S           6.9646   40.1908    6.6816 S.3     1  UNL1       -0.0641
     19 C           7.0198   41.9734    6.8614 C.ar    1  UNL1        0.2151
     20 N           6.7839   42.8206    5.8431 N.ar    1  UNL1       -0.1011
     21 N           6.8389   44.0308    6.3812 N.ar    1  UNL1       -0.0218
     22 N           7.0919   43.9388    7.6787 N.ar    1  UNL1       -0.0382
     23 N           7.2161   42.6640    8.0063 N.ar    1  UNL1       -0.1862
     24 C           7.4806   42.1991    9.3437 C.ar    1  UNL1        0.0868
     25 C           8.7896   42.0971    9.8373 C.ar    1  UNL1        0.0224
     26 C           9.0242   41.6555   11.1434 C.ar    1  UNL1        0.0384
     27 C           7.9532   41.3153   11.9794 C.ar    1  UNL1        0.1388
     28 C           6.6408   41.4209   11.4935 C.ar    1  UNL1        0.0384
     29 C           6.4093   41.8605   10.1869 C.ar    1  UNL1        0.0224
     30 C           9.3916   41.2600   13.9990 C.3     1  UNL1        0.2525
     31 O           8.2170   40.8840   13.2839 O.3     1  UNL1       -0.4714
@<TRIPOS>BOND
     1    15    16    1
     2    16    11    1
     3    11    13   am
     4     6     7   ar
     5     8     3    1
     6     8     9   ar
     7    17     1    1
     8    17    18    1
     9    19    18    1
    10    25    26   ar
    11    27    31    1
    12    27    28   ar
    13    30    31    1
    14    29    24   ar
    15    10     5   ar
    16    13     5    1
    17     3     1   am
    18    20    21   ar
    19    23    22   ar
    20    23    24    1
    21    23    19   ar
    22    11    12    2
    23     5     6   ar
    24     7     8   ar
    25     1     2    2
    26    19    20   ar
    27    24    25   ar
    28    26    27   ar
    29    28    29   ar
    30     9    10   ar
    31    21    22   ar
    32    13    14    1
    33     3     4    1
@<TRIPOS>MOLECULE
MolPort-000-016-465 892171 CHEMBL1300667 MCULE-5639757617 PubChem-1147161 ZINC000000892171 ZINC00892171
 31 33 0 0 0
SMALL
GASTEIGER

@<TRIPOS>ATOM
      1 C           8.0166   44.4159    9.2169 C.2     1  UNL1        0.2376
      2 O           7.2779   45.4321    9.3039 O.2     1  UNL1       -0.2738
      3 N           8.7378   43.9765   10.3794 N.am    1  UNL1       -0.2832
      4 H           8.5869   44.4971   11.2013 H       1  UNL1        0.1549
      5 C          11.4790   40.7375   10.6429 C.ar    1  UNL1        0.0504
      6 C          10.3469   40.7589   11.4669 C.ar    1  UNL1        0.0159
      7 C           9.4398   41.8185   11.3929 C.ar    1  UNL1        0.0159
      8 C           9.6509   42.8741   10.4938 C.ar    1  UNL1        0.0504
      9 C          10.7791   42.8479    9.6652 C.ar    1  UNL1        0.0159
     10 C          11.6889   41.7893    9.7389 C.ar    1  UNL1        0.0159
     11 C          12.2015   38.3080   10.2505 C.2     1  UNL1        0.2261
     12 O          11.1575   37.9946    9.6180 O.2     1  UNL1       -0.2748
     13 N          12.3929   39.6373   10.7539 N.am    1  UNL1       -0.2839
     14 H          13.2395   39.8129   11.2247 H       1  UNL1        0.1549
     15 C          12.7946   35.9286    9.9883 C.3     1  UNL1        0.0101
     16 C          13.2578   37.2841   10.4887 C.3     1  UNL1        0.0854
     17 C           8.0945   43.6976    7.9121 C.3     1  UNL1        0.1502
     18 S           6.4993   43.7780    7.0551 S.3     1  UNL1       -0.0641
     19 C           6.4941   42.0061    6.7838 C.ar    1  UNL1        0.2151
     20 N           7.1159   41.4218    5.7435 N.ar    1  UNL1       -0.1011
     21 N           6.9532   40.1197    5.9312 N.ar    1  UNL1       -0.0218
     22 N           6.2655   39.9046    7.0432 N.ar    1  UNL1       -0.0382
     23 N           5.9593   41.0665    7.5947 N.ar    1  UNL1       -0.1862
     24 C           5.2244   41.2040    8.8258 C.ar    1  UNL1        0.0868
     25 C           5.8797   41.2985   10.0624 C.ar    1  UNL1        0.0224
     26 C           5.1478   41.4446   11.2452 C.ar    1  UNL1        0.0384
     27 C           3.7490   41.5054   11.2098 C.ar    1  UNL1        0.1388
     28 C           3.0876   41.4176    9.9752 C.ar    1  UNL1        0.0384
     29 C           3.8215   41.2694    8.7947 C.ar    1  UNL1        0.0224
     30 C           1.7806   42.3181   12.4810 C.3     1  UNL1        0.2525
     31 O           3.0429   41.6596   12.4078 O.3     1  UNL1       -0.4714
@<TRIPOS>BOND
     1    15    16    1
     2    16    11    1
     3    11    13   am
     4     6     7   ar
     5     8     3    1
     6     8     9   ar
     7    17     1    1
     8    17    18    1
     9    19    18    1
    10    25    26   ar
    11    27    31    1
    12    27    28   ar
    13    30    31    1
    14    29    24   ar
    15    10     5   ar
    16    13     5    1
    17     3     1   am
    18    20    21   ar
    19    23    22   ar
    20    23    24    1
    21    23    19   ar
    22    11    12    2
    23     5     6   ar
    24     7     8   ar
    25     1     2    2
    26    19    20   ar
    27    24    25   ar
    28    26    27   ar
    29    28    29   ar
    30     9    10   ar
    31    21    22   ar
    32    13    14    1
    33     3     4    1
@<TRIPOS>MOLECULE
MolPort-000-016-465 892171 CHEMBL1300667 MCULE-5639757617 PubChem-1147161 ZINC000000892171 ZINC00892171
 31 33 0 0 0
SMALL
GASTEIGER

@<TRIPOS>ATOM
      1 C          10.8952   40.9343    5.5003 C.2     1  UNL1        0.2376
      2 O          11.4760   40.8146    4.3893 O.2     1  UNL1       -0.2738
      3 N           9.5063   41.3013    5.5251 N.am    1  UNL1       -0.2832
      4 H           9.0760   41.4160    4.6471 H       1  UNL1        0.1549
      5 C           7.0157   42.0400    8.8906 C.ar    1  UNL1        0.0504
      6 C           7.7033   40.8243    8.7880 C.ar    1  UNL1        0.0159
      7 C           8.5224   40.5673    7.6862 C.ar    1  UNL1        0.0159
      8 C           8.6664   41.5220    6.6689 C.ar    1  UNL1        0.0504
      9 C           7.9845   42.7401    6.7761 C.ar    1  UNL1        0.0159
     10 C           7.1630   42.9985    7.8771 C.ar    1  UNL1        0.0159
     11 C           4.8355   41.7908   10.2184 C.2     1  UNL1        0.2261
     12 O           4.2668   41.0832    9.3442 O.2     1  UNL1       -0.2748
     13 N           6.1765   42.2642   10.0323 N.am    1  UNL1       -0.2839
     14 H           6.5611   42.7987   10.7641 H       1  UNL1        0.1549
     15 C           2.6094   42.0356   11.2512 C.3     1  UNL1        0.0101
     16 C           4.1068   42.1512   11.4674 C.3     1  UNL1        0.0854
     17 C          11.6716   40.6682    6.7457 C.3     1  UNL1        0.1502
     18 S          11.8015   42.1786    7.7392 S.3     1  UNL1       -0.0641
     19 C          13.1865   42.7658    6.7644 C.ar    1  UNL1        0.2151
     20 N          13.0452   43.5982    5.7168 N.ar    1  UNL1       -0.1011
     21 N          14.2809   43.8592    5.3143 N.ar    1  UNL1       -0.0218
     22 N          15.1521   43.2214    6.0825 N.ar    1  UNL1       -0.0382
     23 N          14.4962   42.5244    6.9946 N.ar    1  UNL1       -0.1862
     24 C          15.1340   41.7208    8.0055 C.ar    1  UNL1        0.0868
     25 C          14.4605   40.6610    8.6304 C.ar    1  UNL1        0.0224
     26 C          15.1023   39.8846    9.6006 C.ar    1  UNL1        0.0384
     27 C          16.4304   40.1511    9.9566 C.ar    1  UNL1        0.1388
     28 C          17.1119   41.2063    9.3307 C.ar    1  UNL1        0.0384
     29 C          16.4672   41.9821    8.3629 C.ar    1  UNL1        0.0224
     30 C          16.4678   38.1509   11.4224 C.3     1  UNL1        0.2525
     31 O          17.0498   39.3533   10.9247 O.3     1  UNL1       -0.4714
@<TRIPOS>BOND
     1    15    16    1
     2    16    11    1
     3    11    13   am
     4     6     7   ar
     5     8     3    1
     6     8     9   ar
     7    17     1    1
     8    17    18    1
     9    19    18    1
    10    25    26   ar
    11    27    31    1
    12    27    28   ar
    13    30    31    1
    14    29    24   ar
    15    10     5   ar
    16    13     5    1
    17     3     1   am
    18    20    21   ar
    19    23    22   ar
    20    23    24    1
    21    23    19   ar
    22    11    12    2
    23     5     6   ar
    24     7     8   ar
    25     1     2    2
    26    19    20   ar
    27    24    25   ar
    28    26    27   ar
    29    28    29   ar
    30     9    10   ar
    31    21    22   ar
    32    13    14    1
    33     3     4    1
@<TRIPOS>MOLECULE
MolPort-000-016-465 892171 CHEMBL1300667 MCULE-5639757617 PubChem-1147161 ZINC000000892171 ZINC00892171
 31 33 0 0 0
SMALL
GASTEIGER

@<TRIPOS>ATOM
      1 C           9.6400   41.4889    5.8995 C.2     1  UNL1        0.2376
      2 O           8.6598   41.0245    5.2596 O.2     1  UNL1       -0.2738
      3 N          10.9485   41.4318    5.3088 N.am    1  UNL1       -0.2832
      4 H          10.9958   41.0446    4.4049 H       1  UNL1        0.1549
      5 C          14.6341   42.6631    7.0337 C.ar    1  UNL1        0.0504
      6 C          14.0091   43.4731    6.0775 C.ar    1  UNL1        0.0159
      7 C          12.7996   43.0792    5.5005 C.ar    1  UNL1        0.0159
      8 C          12.1962   41.8683    5.8702 C.ar    1  UNL1        0.0504
      9 C          12.8180   41.0628    6.8318 C.ar    1  UNL1        0.0159
     10 C          14.0293   41.4544    7.4091 C.ar    1  UNL1        0.0159
     11 C          16.9055   43.8505    6.9363 C.2     1  UNL1        0.2261
     12 O          16.7701   44.2264    5.7410 O.2     1  UNL1       -0.2748
     13 N          15.8801   43.0964    7.5974 N.am    1  UNL1       -0.2839
     14 H          16.0489   42.8507    8.5356 H       1  UNL1        0.1549
     15 C          17.8778   44.2178    9.1728 C.3     1  UNL1        0.0101
     16 C          18.1521   44.1860    7.6808 C.3     1  UNL1        0.0854
     17 C           9.3960   42.0991    7.2384 C.3     1  UNL1        0.1502
     18 S          10.2720   41.1668    8.5223 S.3     1  UNL1       -0.0641
     19 C           9.4941   39.6332    8.0161 C.ar    1  UNL1        0.2151
     20 N           8.3382   39.5894    7.3289 N.ar    1  UNL1       -0.1011
     21 N           8.1341   38.3038    7.0784 N.ar    1  UNL1       -0.0218
     22 N           9.1237   37.5812    7.5828 N.ar    1  UNL1       -0.0382
     23 N           9.9861   38.3853    8.1806 N.ar    1  UNL1       -0.1862
     24 C          11.1920   37.9346    8.8266 C.ar    1  UNL1        0.0868
     25 C          12.4576   38.3411    8.3790 C.ar    1  UNL1        0.0224
     26 C          13.6159   37.9022    9.0284 C.ar    1  UNL1        0.0384
     27 C          13.5270   37.0550   10.1402 C.ar    1  UNL1        0.1388
     28 C          12.2634   36.6495   10.5968 C.ar    1  UNL1        0.0384
     29 C          11.1074   37.0880    9.9445 C.ar    1  UNL1        0.0224
     30 C          15.9786   37.2023   10.4853 C.3     1  UNL1        0.2525
     31 O          14.7019   36.6378   10.7750 O.3     1  UNL1       -0.4714
@<TRIPOS>BOND
     1    15    16    1
     2    16    11    1
     3    11    13   am
     4     6     7   ar
     5     8     3    1
     6     8     9   ar
     7    17     1    1
     8    17    18    1
     9    19    18    1
    10    25    26   ar
    11    27    31    1
    12    27    28   ar
    13    30    31    1
    14    29    24   ar
    15    10     5   ar
    16    13     5    1
    17     3     1   am
    18    20    21   ar
    19    23    22   ar
    20    23    24    1
    21    23    19   ar
    22    11    12    2
    23     5     6   ar
    24     7     8   ar
    25     1     2    2
    26    19    20   ar
    27    24    25   ar
    28    26    27   ar
    29    28    29   ar
    30     9    10   ar
    31    21    22   ar
    32    13    14    1
    33     3     4    1
@<TRIPOS>MOLECULE
MolPort-000-016-465 892171 CHEMBL1300667 MCULE-5639757617 PubChem-1147161 ZINC000000892171 ZINC00892171
 31 33 0 0 0
SMALL
GASTEIGER

@<TRIPOS>ATOM
      1 C          11.8846   41.0803   10.1019 C.2     1  UNL1        0.2376
      2 O          13.0662   40.7036   10.3204 O.2     1  UNL1       -0.2738
      3 N          10.9042   40.9401   11.1428 N.am    1  UNL1       -0.2832
      4 H          11.2312   40.5704   11.9947 H       1  UNL1        0.1549
      5 C           6.7832   41.9647   10.9350 C.ar    1  UNL1        0.0504
      6 C           7.3087   41.4336   12.1195 C.ar    1  UNL1        0.0159
      7 C           8.6601   41.0898   12.2005 C.ar    1  UNL1        0.0159
      8 C           9.5075   41.2710   11.0977 C.ar    1  UNL1        0.0504
      9 C           8.9828   41.8091    9.9164 C.ar    1  UNL1        0.0159
     10 C           7.6304   42.1522    9.8328 C.ar    1  UNL1        0.0159
     11 C           4.3695   41.6187   10.1397 C.2     1  UNL1        0.2261
     12 O           4.6393   40.6053    9.4407 O.2     1  UNL1       -0.2748
     13 N           5.3886   42.2973   10.8866 N.am    1  UNL1       -0.2839
     14 H           5.1012   43.0720   11.4219 H       1  UNL1        0.1549
     15 C           2.4872   42.1861   11.6287 C.3     1  UNL1        0.0101
     16 C           2.9709   42.1308   10.1917 C.3     1  UNL1        0.0854
     17 C          11.5580   41.6773    8.7747 C.3     1  UNL1        0.1502
     18 S          12.3544   40.7328    7.4484 S.3     1  UNL1       -0.0641
     19 C          13.3123   42.1582    6.9345 C.ar    1  UNL1        0.2151
     20 N          12.8087   43.1422    6.1676 N.ar    1  UNL1       -0.1011
     21 N          13.7814   44.0377    6.0722 N.ar    1  UNL1       -0.0218
     22 N          14.8411   43.6302    6.7555 N.ar    1  UNL1       -0.0382
     23 N          14.5790   42.4546    7.3006 N.ar    1  UNL1       -0.1862
     24 C          15.5079   41.7249    8.1248 C.ar    1  UNL1        0.0868
     25 C          15.1229   40.5615    8.8074 C.ar    1  UNL1        0.0224
     26 C          16.0438   39.8604    9.5924 C.ar    1  UNL1        0.0384
     27 C          17.3665   40.3075    9.7021 C.ar    1  UNL1        0.1388
     28 C          17.7597   41.4674    9.0169 C.ar    1  UNL1        0.0384
     29 C          16.8366   42.1674    8.2346 C.ar    1  UNL1        0.0224
     30 C          18.4178   38.1679   10.3863 C.3     1  UNL1        0.2525
     31 O          18.2683   39.5821   10.4882 O.3     1  UNL1       -0.4714
@<TRIPOS>BOND
     1    15    16    1
     2    16    11    1
     3    11    13   am
     4     6     7   ar
     5     8     3    1
     6     8     9   ar
     7    17     1    1
     8    17    18    1
     9    19    18    1
    10    25    26   ar
    11    27    31    1
    12    27    28   ar
    13    30    31    1
    14    29    24   ar
    15    10     5   ar
    16    13     5    1
    17     3     1   am
    18    20    21   ar
    19    23    22   ar
    20    23    24    1
    21    23    19   ar
    22    11    12    2
    23     5     6   ar
    24     7     8   ar
    25     1     2    2
    26    19    20   ar
    27    24    25   ar
    28    26    27   ar
    29    28    29   ar
    30     9    10   ar
    31    21    22   ar
    32    13    14    1
    33     3     4    1
@<TRIPOS>MOLECULE
MolPort-000-016-465 892171 CHEMBL1300667 MCULE-5639757617 PubChem-1147161 ZINC000000892171 ZINC00892171
 31 33 0 0 0
SMALL
GASTEIGER

@<TRIPOS>ATOM
      1 C          10.4024   41.3571    5.8794 C.2     1  UNL1        0.2376
      2 O           9.6696   41.5679    4.8772 O.2     1  UNL1       -0.2738
      3 N          11.8243   41.5187    5.7501 N.am    1  UNL1       -0.2832
      4 H          12.1448   41.8162    4.8680 H       1  UNL1        0.1549
      5 C          14.7667   40.8225    8.7388 C.ar    1  UNL1        0.0504
      6 C          14.9438   41.8624    7.8177 C.ar    1  UNL1        0.0159
      7 C          13.9865   42.1003    6.8287 C.ar    1  UNL1        0.0159
      8 C          12.8369   41.3012    6.7448 C.ar    1  UNL1        0.0504
      9 C          12.6572   40.2666    7.6708 C.ar    1  UNL1        0.0159
     10 C          13.6148   40.0258    8.6601 C.ar    1  UNL1        0.0159
     11 C          16.4345   39.3637   10.0306 C.2     1  UNL1        0.2261
     12 O          16.1705   38.3144    9.3843 O.2     1  UNL1       -0.2748
     13 N          15.7759   40.6028    9.7344 N.am    1  UNL1       -0.2839
     14 H          16.0442   41.3840   10.2702 H       1  UNL1        0.1549
     15 C          18.6819   38.5752   10.6708 C.3     1  UNL1        0.0101
     16 C          17.4431   39.3233   11.1269 C.3     1  UNL1        0.0854
     17 C           9.7585   40.9679    7.1672 C.3     1  UNL1        0.1502
     18 S           8.0764   40.3617    6.8700 S.3     1  UNL1       -0.0641
     19 C           7.3963   42.0135    7.0190 C.ar    1  UNL1        0.2151
     20 N           6.9270   42.7107    5.9683 N.ar    1  UNL1       -0.1011
     21 N           6.4462   43.8326    6.4855 N.ar    1  UNL1       -0.0218
     22 N           6.6046   43.8294    7.8011 N.ar    1  UNL1       -0.0382
     23 N           7.2018   42.7067    8.1627 N.ar    1  UNL1       -0.1862
     24 C           7.5170   42.3661    9.5262 C.ar    1  UNL1        0.0868
     25 C           8.7421   42.7273   10.1061 C.ar    1  UNL1        0.0224
     26 C           9.0234   42.3981   11.4359 C.ar    1  UNL1        0.0384
     27 C           8.0814   41.7083   12.2095 C.ar    1  UNL1        0.1388
     28 C           6.8513   41.3494   11.6371 C.ar    1  UNL1        0.0384
     29 C           6.5737   41.6779   10.3071 C.ar    1  UNL1        0.0224
     30 C           9.7185   41.1691   13.9928 C.3     1  UNL1        0.2525
     31 O           8.3866   41.3989   13.5394 O.3     1  UNL1       -0.4714
@<TRIPOS>BOND
     1    15    16    1
     2    16    11    1
     3    11    13   am
     4     6     7   ar
     5     8     3    1
     6     8     9   ar
     7    17     1    1
     8    17    18    1
     9    19    18    1
    10    25    26   ar
    11    27    31    1
    12    27    28   ar
    13    30    31    1
    14    29    24   ar
    15    10     5   ar
    16    13     5    1
    17     3     1   am
    18    20    21   ar
    19    23    22   ar
    20    23    24    1
    21    23    19   ar
    22    11    12    2
    23     5     6   ar
    24     7     8   ar
    25     1     2    2
    26    19    20   ar
    27    24    25   ar
    28    26    27   ar
    29    28    29   ar
    30     9    10   ar
    31    21    22   ar
    32    13    14    1
    33     3     4    1
@<TRIPOS>MOLECULE
MolPort-000-016-465 892171 CHEMBL1300667 MCULE-5639757617 PubChem-1147161 ZINC000000892171 ZINC00892171
 31 33 0 0 0
SMALL
GASTEIGER

@<TRIPOS>ATOM
      1 C          12.1844   39.7684   10.7644 C.2     1  UNL1        0.2376
      2 O          13.3720   39.5565   11.1261 O.2     1  UNL1       -0.2738
      3 N          11.4292   40.7999   11.4203 N.am    1  UNL1       -0.2832
      4 H          11.9078   41.3078   12.1147 H       1  UNL1        0.1549
      5 C           7.4115   41.9649   10.6617 C.ar    1  UNL1        0.0504
      6 C           7.8072   41.6417   11.9655 C.ar    1  UNL1        0.0159
      7 C           9.1232   41.2543   12.2284 C.ar    1  UNL1        0.0159
      8 C          10.0645   41.1835   11.1910 C.ar    1  UNL1        0.0504
      9 C           9.6697   41.5141    9.8890 C.ar    1  UNL1        0.0159
     10 C           8.3528   41.9003    9.6237 C.ar    1  UNL1        0.0159
     11 C           4.8748   41.6069   10.7845 C.2     1  UNL1        0.2261
     12 O           4.9592   40.5000   11.3810 O.2     1  UNL1       -0.2748
     13 N           6.0492   42.3495   10.4290 N.am    1  UNL1       -0.2839
     14 H           5.9054   43.2129    9.9785 H       1  UNL1        0.1549
     15 C           2.8255   41.2302    9.4650 C.3     1  UNL1        0.0101
     16 C           3.5353   42.1579   10.4334 C.3     1  UNL1        0.0854
     17 C          11.6186   38.9509    9.6526 C.3     1  UNL1        0.1502
     18 S          12.7932   38.8663    8.2748 S.3     1  UNL1       -0.0641
     19 C          11.7355   39.8777    7.2396 C.ar    1  UNL1        0.2151
     20 N          10.4768   39.5296    6.9161 N.ar    1  UNL1       -0.1011
     21 N          10.0047   40.5521    6.2171 N.ar    1  UNL1       -0.0218
     22 N          10.9282   41.4970    6.1162 N.ar    1  UNL1       -0.0382
     23 N          12.0237   41.1003    6.7410 N.ar    1  UNL1       -0.1862
     24 C          13.2239   41.8903    6.8409 C.ar    1  UNL1        0.0868
     25 C          13.4049   43.0470    6.0683 C.ar    1  UNL1        0.0224
     26 C          14.5723   43.8073    6.1898 C.ar    1  UNL1        0.0384
     27 C          15.5749   43.4271    7.0909 C.ar    1  UNL1        0.1388
     28 C          15.3973   42.2743    7.8713 C.ar    1  UNL1        0.0384
     29 C          14.2303   41.5150    7.7462 C.ar    1  UNL1        0.0224
     30 C          17.9326   43.7361    7.7957 C.3     1  UNL1        0.2525
     31 O          16.7289   44.2109    7.1972 O.3     1  UNL1       -0.4714
@<TRIPOS>BOND
     1    15    16    1
     2    16    11    1
     3    11    13   am
     4     6     7   ar
     5     8     3    1
     6     8     9   ar
     7    17     1    1
     8    17    18    1
     9    19    18    1
    10    25    26   ar
    11    27    31    1
    12    27    28   ar
    13    30    31    1
    14    29    24   ar
    15    10     5   ar
    16    13     5    1
    17     3     1   am
    18    20    21   ar
    19    23    22   ar
    20    23    24    1
    21    23    19   ar
    22    11    12    2
    23     5     6   ar
    24     7     8   ar
    25     1     2    2
    26    19    20   ar
    27    24    25   ar
    28    26    27   ar
    29    28    29   ar
    30     9    10   ar
    31    21    22   ar
    32    13    14    1
    33     3     4    1
