@<TRIPOS>MOLECULE
MolPort-002-278-582 568467 CSSS00030047638 MCULE-7370993696 PubChem-959490 ZINC000000568467 ZINC00568467
 26 27 0 0 0
SMALL
GASTEIGER

@<TRIPOS>ATOM
      1 C          14.2671   42.2433    7.1083 C.ar    1  UNL1        0.0857
      2 C          13.8017   43.2429    6.2619 C.ar    1  UNL1        0.0408
      3 C          14.6112   44.3527    5.6848 C.3     1  UNL1        0.0500
      4 C          12.1104   42.0000    6.6940 C.ar    1  UNL1        0.1085
      5 C          13.1694   41.4476    7.3811 C.ar    1  UNL1        0.0153
      6 C          13.1176   40.2319    8.2435 C.3     1  UNL1        0.0342
      7 N          12.4855   43.0977    6.0066 N.ar    1  UNL1       -0.3451
      8 H          11.9198   43.6703    5.4398 H       1  UNL1        0.1668
      9 C           9.8473   41.6240    7.7845 C.2     1  UNL1        0.3057
     10 O          10.1662   42.2537    8.8297 O.2     1  UNL1       -0.2524
     11 N          10.7774   41.4760    6.7073 N.am    1  UNL1       -0.2554
     12 N           8.5473   41.0483    7.6631 N.am    1  UNL1       -0.2846
     13 H          10.4781   40.9755    5.9141 H       1  UNL1        0.1578
     14 H           8.3164   40.5603    6.8398 H       1  UNL1        0.1513
     15 C           7.5531   41.1604    8.7186 C.3     1  UNL1        0.1177
     16 C           6.6356   42.2947    8.4269 C.ar    1  UNL1       -0.0025
     17 C           6.8607   43.1083    7.3108 C.ar    1  UNL1       -0.0026
     18 C           5.9861   44.1611    7.0244 C.ar    1  UNL1       -0.0003
     19 C           4.8830   44.3981    7.8504 C.ar    1  UNL1       -0.0000
     20 C           4.6529   43.5812    8.9618 C.ar    1  UNL1       -0.0003
     21 C           5.5274   42.5283    9.2486 C.ar    1  UNL1       -0.0026
     22 C          15.6431   42.0637    7.6151 C.2     1  UNL1        0.3421
     23 O          15.8690   41.2538    8.5553 O.2     1  UNL1       -0.2449
     24 O          16.6926   42.7984    7.0544 O.3     1  UNL1       -0.4454
     25 C          17.3973   44.0527    8.9943 C.3     1  UNL1        0.0513
     26 C          17.8278   43.2136    7.8049 C.3     1  UNL1        0.2089
@<TRIPOS>BOND
     1    25    26    1
     2    26    24    1
     3    22    24    1
     4    22     1    1
     5     2     7   ar
     6     3     2    1
     7     4    11    1
     8     9    12   am
     9    15    12    1
    10    15    16    1
    11    17    18   ar
    12    19    20   ar
    13    21    16   ar
    14     5     1   ar
    15     6     5    1
    16     7     4   ar
    17    11     9   am
    18    22    23    2
    19     1     2   ar
    20     4     5   ar
    21     9    10    2
    22    16    17   ar
    23    18    19   ar
    24    20    21   ar
    25     7     8    1
    26    11    13    1
    27    12    14    1
@<TRIPOS>MOLECULE
MolPort-002-278-582 568467 CSSS00030047638 MCULE-7370993696 PubChem-959490 ZINC000000568467 ZINC00568467
 26 27 0 0 0
SMALL
GASTEIGER

@<TRIPOS>ATOM
      1 C          13.0119   41.4078    7.6240 C.ar    1  UNL1        0.0857
      2 C          12.8506   42.2356    6.5190 C.ar    1  UNL1        0.0408
      3 C          13.9342   42.9651    5.8023 C.3     1  UNL1        0.0500
      4 C          10.8899   41.5309    7.0202 C.ar    1  UNL1        0.1085
      5 C          11.7424   40.9589    7.9394 C.ar    1  UNL1        0.0153
      6 C          11.3502   40.0408    9.0474 C.3     1  UNL1        0.0342
      7 N          11.5566   42.3132    6.1474 N.ar    1  UNL1       -0.3451
      8 H          11.1795   42.8301    5.3992 H       1  UNL1        0.1668
      9 C           8.5073   42.1611    7.6352 C.2     1  UNL1        0.3057
     10 O           8.8688   43.1770    8.2894 O.2     1  UNL1       -0.2524
     11 N           9.4731   41.3226    6.9936 N.am    1  UNL1       -0.2554
     12 N           7.1226   41.8341    7.5263 N.am    1  UNL1       -0.2846
     13 H           9.1378   40.5423    6.4956 H       1  UNL1        0.1578
     14 H           6.8594   41.0373    7.0115 H       1  UNL1        0.1513
     15 C           6.0883   42.6420    8.1527 C.3     1  UNL1        0.1177
     16 C           5.4691   41.8853    9.2741 C.ar    1  UNL1       -0.0025
     17 C           4.1884   41.3406    9.1285 C.ar    1  UNL1       -0.0026
     18 C           3.6152   40.6109   10.1746 C.ar    1  UNL1       -0.0003
     19 C           4.3238   40.4208   11.3650 C.ar    1  UNL1       -0.0000
     20 C           5.6068   40.9583   11.5088 C.ar    1  UNL1       -0.0003
     21 C           6.1804   41.6881   10.4630 C.ar    1  UNL1       -0.0026
     22 C          14.2711   41.0747    8.3209 C.2     1  UNL1        0.3421
     23 O          14.4648   39.9045    8.7499 O.2     1  UNL1       -0.2449
     24 O          15.2441   42.0612    8.5093 O.3     1  UNL1       -0.4454
     25 C          17.4377   43.0483    8.7260 C.3     1  UNL1        0.0513
     26 C          16.6375   41.7739    8.5268 C.3     1  UNL1        0.2089
@<TRIPOS>BOND
     1    25    26    1
     2    26    24    1
     3    22    24    1
     4    22     1    1
     5     2     7   ar
     6     3     2    1
     7     4    11    1
     8     9    12   am
     9    15    12    1
    10    15    16    1
    11    17    18   ar
    12    19    20   ar
    13    21    16   ar
    14     5     1   ar
    15     6     5    1
    16     7     4   ar
    17    11     9   am
    18    22    23    2
    19     1     2   ar
    20     4     5   ar
    21     9    10    2
    22    16    17   ar
    23    18    19   ar
    24    20    21   ar
    25     7     8    1
    26    11    13    1
    27    12    14    1
@<TRIPOS>MOLECULE
MolPort-002-278-582 568467 CSSS00030047638 MCULE-7370993696 PubChem-959490 ZINC000000568467 ZINC00568467
 26 27 0 0 0
SMALL
GASTEIGER

@<TRIPOS>ATOM
      1 C          14.1890   40.7422    9.0675 C.ar    1  UNL1        0.0857
      2 C          13.3684   41.3964    8.1561 C.ar    1  UNL1        0.0408
      3 C          13.8124   42.0896    6.9142 C.3     1  UNL1        0.0500
      4 C          12.0693   40.6398    9.6832 C.ar    1  UNL1        0.1085
      5 C          13.3422   40.2583   10.0480 C.ar    1  UNL1        0.0153
      6 C          13.7097   39.4787   11.2653 C.3     1  UNL1        0.0342
      7 N          12.0736   41.3360    8.5284 N.ar    1  UNL1       -0.3451
      8 H          11.2979   41.7182    8.0579 H       1  UNL1        0.1668
      9 C           9.8450   41.2680   10.7368 C.2     1  UNL1        0.3057
     10 O           9.9121   42.4627   10.3382 O.2     1  UNL1       -0.2524
     11 N          10.8884   40.3365   10.4349 N.am    1  UNL1       -0.2554
     12 N           8.7210   40.8284   11.4981 N.am    1  UNL1       -0.2846
     13 H          10.7868   39.4163   10.7697 H       1  UNL1        0.1578
     14 H           8.6861   39.8922   11.8006 H       1  UNL1        0.1513
     15 C           7.6254   41.7213   11.8407 C.3     1  UNL1        0.1177
     16 C           6.4611   41.4519   10.9545 C.ar    1  UNL1       -0.0025
     17 C           5.2472   41.0240   11.5037 C.ar    1  UNL1       -0.0026
     18 C           4.1465   40.7916   10.6731 C.ar    1  UNL1       -0.0003
     19 C           4.2569   40.9918    9.2936 C.ar    1  UNL1       -0.0000
     20 C           5.4673   41.4264    8.7445 C.ar    1  UNL1       -0.0003
     21 C           6.5683   41.6589    9.5747 C.ar    1  UNL1       -0.0026
     22 C          15.6574   40.5929    9.0085 C.2     1  UNL1        0.3421
     23 O          16.2200   39.6393    9.6127 O.2     1  UNL1       -0.2449
     24 O          16.4221   41.5149    8.2868 O.3     1  UNL1       -0.4454
     25 C          17.7196   43.5282    7.9768 C.3     1  UNL1        0.0513
     26 C          17.3702   42.3781    8.9037 C.3     1  UNL1        0.2089
@<TRIPOS>BOND
     1    25    26    1
     2    26    24    1
     3    22    24    1
     4    22     1    1
     5     2     7   ar
     6     3     2    1
     7     4    11    1
     8     9    12   am
     9    15    12    1
    10    15    16    1
    11    17    18   ar
    12    19    20   ar
    13    21    16   ar
    14     5     1   ar
    15     6     5    1
    16     7     4   ar
    17    11     9   am
    18    22    23    2
    19     1     2   ar
    20     4     5   ar
    21     9    10    2
    22    16    17   ar
    23    18    19   ar
    24    20    21   ar
    25     7     8    1
    26    11    13    1
    27    12    14    1
@<TRIPOS>MOLECULE
MolPort-002-278-582 568467 CSSS00030047638 MCULE-7370993696 PubChem-959490 ZINC000000568467 ZINC00568467
 26 27 0 0 0
SMALL
GASTEIGER

@<TRIPOS>ATOM
      1 C           8.0076   41.8556   10.6475 C.ar    1  UNL1        0.0857
      2 C           8.9080   41.7770   11.7035 C.ar    1  UNL1        0.0408
      3 C           8.6057   41.2990   13.0820 C.3     1  UNL1        0.0500
      4 C          10.0169   42.5438   10.0378 C.ar    1  UNL1        0.1085
      5 C           8.7320   42.3511    9.5787 C.ar    1  UNL1        0.0153
      6 C           8.2424   42.6302    8.1978 C.3     1  UNL1        0.0342
      7 N          10.1357   42.1962   11.3352 N.ar    1  UNL1       -0.3451
      8 H          10.9452   42.2391   11.8938 H       1  UNL1        0.1668
      9 C          11.9950   42.2470    8.4722 C.2     1  UNL1        0.3057
     10 O          11.8864   40.9905    8.4574 O.2     1  UNL1       -0.2524
     11 N          11.0926   43.0502    9.2391 N.am    1  UNL1       -0.2554
     12 N          13.0251   42.8863    7.7197 N.am    1  UNL1       -0.2846
     13 H          11.2211   44.0260    9.2161 H       1  UNL1        0.1578
     14 H          13.0943   43.8681    7.7434 H       1  UNL1        0.1513
     15 C          13.9759   42.1318    6.9187 C.3     1  UNL1        0.1177
     16 C          15.3471   42.6710    7.1253 C.ar    1  UNL1       -0.0025
     17 C          15.7934   43.7589    6.3668 C.ar    1  UNL1       -0.0026
     18 C          17.0743   44.2795    6.5760 C.ar    1  UNL1       -0.0003
     19 C          17.9079   43.7162    7.5471 C.ar    1  UNL1       -0.0000
     20 C          17.4602   42.6338    8.3109 C.ar    1  UNL1       -0.0003
     21 C          16.1794   42.1128    8.1020 C.ar    1  UNL1       -0.0026
     22 C           6.5763   41.4901   10.6580 C.2     1  UNL1        0.3421
     23 O           5.9489   41.4262   11.7503 O.2     1  UNL1       -0.2449
     24 O           5.9212   41.2087    9.4549 O.3     1  UNL1       -0.4454
     25 C           4.5295   43.1273    8.9910 C.3     1  UNL1        0.0513
     26 C           4.5861   41.6236    9.1908 C.3     1  UNL1        0.2089
@<TRIPOS>BOND
     1    25    26    1
     2    26    24    1
     3    22    24    1
     4    22     1    1
     5     2     7   ar
     6     3     2    1
     7     4    11    1
     8     9    12   am
     9    15    12    1
    10    15    16    1
    11    17    18   ar
    12    19    20   ar
    13    21    16   ar
    14     5     1   ar
    15     6     5    1
    16     7     4   ar
    17    11     9   am
    18    22    23    2
    19     1     2   ar
    20     4     5   ar
    21     9    10    2
    22    16    17   ar
    23    18    19   ar
    24    20    21   ar
    25     7     8    1
    26    11    13    1
    27    12    14    1
@<TRIPOS>MOLECULE
MolPort-002-278-582 568467 CSSS00030047638 MCULE-7370993696 PubChem-959490 ZINC000000568467 ZINC00568467
 26 27 0 0 0
SMALL
GASTEIGER

@<TRIPOS>ATOM
      1 C          14.6844   39.9784    9.4367 C.ar    1  UNL1        0.0857
      2 C          14.8253   41.0851    8.6076 C.ar    1  UNL1        0.0408
      3 C          16.1097   41.7277    8.2109 C.3     1  UNL1        0.0500
      4 C          12.7193   40.7125    8.7422 C.ar    1  UNL1        0.1085
      5 C          13.3234   39.7464    9.5172 C.ar    1  UNL1        0.0153
      6 C          12.6262   38.6734   10.2834 C.3     1  UNL1        0.0342
      7 N          13.6279   41.5360    8.1815 N.ar    1  UNL1       -0.3451
      8 H          13.4543   42.3023    7.5883 H       1  UNL1        0.1668
      9 C          10.4631   41.7777    9.2188 C.2     1  UNL1        0.3057
     10 O          10.9456   42.6006   10.0438 O.2     1  UNL1       -0.2524
     11 N          11.3041   40.8294    8.5547 N.am    1  UNL1       -0.2554
     12 N           9.0645   41.7826    8.9360 N.am    1  UNL1       -0.2846
     13 H          10.8772   40.2095    7.9201 H       1  UNL1        0.1578
     14 H           8.7060   41.1327    8.2891 H       1  UNL1        0.1513
     15 C           8.1524   42.7183    9.5742 C.3     1  UNL1        0.1177
     16 C           6.8501   42.0496    9.8397 C.ar    1  UNL1       -0.0025
     17 C           5.9396   41.8504    8.7959 C.ar    1  UNL1       -0.0026
     18 C           4.7248   41.2026    9.0409 C.ar    1  UNL1       -0.0003
     19 C           4.4217   40.7488   10.3283 C.ar    1  UNL1       -0.0000
     20 C           5.3340   40.9406   11.3706 C.ar    1  UNL1       -0.0003
     21 C           6.5489   41.5885   11.1260 C.ar    1  UNL1       -0.0026
     22 C          15.7579   39.2082   10.0974 C.2     1  UNL1        0.3421
     23 O          16.7630   39.8047   10.5714 O.2     1  UNL1       -0.2449
     24 O          15.6599   37.8163   10.1898 O.3     1  UNL1       -0.4454
     25 C          14.8818   36.0965    8.6830 C.3     1  UNL1        0.0513
     26 C          16.0555   36.9457    9.1362 C.3     1  UNL1        0.2089
@<TRIPOS>BOND
     1    25    26    1
     2    26    24    1
     3    22    24    1
     4    22     1    1
     5     2     7   ar
     6     3     2    1
     7     4    11    1
     8     9    12   am
     9    15    12    1
    10    15    16    1
    11    17    18   ar
    12    19    20   ar
    13    21    16   ar
    14     5     1   ar
    15     6     5    1
    16     7     4   ar
    17    11     9   am
    18    22    23    2
    19     1     2   ar
    20     4     5   ar
    21     9    10    2
    22    16    17   ar
    23    18    19   ar
    24    20    21   ar
    25     7     8    1
    26    11    13    1
    27    12    14    1
@<TRIPOS>MOLECULE
MolPort-002-278-582 568467 CSSS00030047638 MCULE-7370993696 PubChem-959490 ZINC000000568467 ZINC00568467
 26 27 0 0 0
SMALL
GASTEIGER

@<TRIPOS>ATOM
      1 C          13.4336   38.5106    9.5140 C.ar    1  UNL1        0.0857
      2 C          13.6973   39.8754    9.5131 C.ar    1  UNL1        0.0408
      3 C          15.0410   40.5103    9.4072 C.3     1  UNL1        0.0500
      4 C          11.5705   39.6851    9.6941 C.ar    1  UNL1        0.1085
      5 C          12.0601   38.3985    9.6312 C.ar    1  UNL1        0.0153
      6 C          11.2496   37.1476    9.6827 C.3     1  UNL1        0.0342
      7 N          12.5625   40.5956    9.6228 N.ar    1  UNL1       -0.3451
      8 H          12.4766   41.5761    9.6459 H       1  UNL1        0.1668
      9 C           9.5149   41.0489    9.0888 C.2     1  UNL1        0.3057
     10 O          10.1422   41.7570    8.2546 O.2     1  UNL1       -0.2524
     11 N          10.1826   40.0159    9.8199 N.am    1  UNL1       -0.2554
     12 N           8.1235   41.2707    9.3146 N.am    1  UNL1       -0.2846
     13 H           9.6468   39.4923   10.4587 H       1  UNL1        0.1578
     14 H           7.6506   40.7080    9.9696 H       1  UNL1        0.1513
     15 C           7.3828   42.3027    8.6066 C.3     1  UNL1        0.1177
     16 C           5.9462   42.2429    8.9894 C.ar    1  UNL1       -0.0025
     17 C           5.1394   43.3791    8.8608 C.ar    1  UNL1       -0.0026
     18 C           3.7843   43.3171    9.2001 C.ar    1  UNL1       -0.0003
     19 C           3.2335   42.1181    9.6631 C.ar    1  UNL1       -0.0000
     20 C           4.0371   40.9801    9.7849 C.ar    1  UNL1       -0.0003
     21 C           5.3924   41.0417    9.4458 C.ar    1  UNL1       -0.0026
     22 C          14.4100   37.4067    9.4129 C.2     1  UNL1        0.3421
     23 O          15.4081   37.5145    8.6493 O.2     1  UNL1       -0.2449
     24 O          14.2212   36.2402   10.1607 O.3     1  UNL1       -0.4454
     25 C          14.9530   34.3818    8.8028 C.3     1  UNL1        0.0513
     26 C          13.8082   35.0104    9.5763 C.3     1  UNL1        0.2089
@<TRIPOS>BOND
     1    25    26    1
     2    26    24    1
     3    22    24    1
     4    22     1    1
     5     2     7   ar
     6     3     2    1
     7     4    11    1
     8     9    12   am
     9    15    12    1
    10    15    16    1
    11    17    18   ar
    12    19    20   ar
    13    21    16   ar
    14     5     1   ar
    15     6     5    1
    16     7     4   ar
    17    11     9   am
    18    22    23    2
    19     1     2   ar
    20     4     5   ar
    21     9    10    2
    22    16    17   ar
    23    18    19   ar
    24    20    21   ar
    25     7     8    1
    26    11    13    1
    27    12    14    1
@<TRIPOS>MOLECULE
MolPort-002-278-582 568467 CSSS00030047638 MCULE-7370993696 PubChem-959490 ZINC000000568467 ZINC00568467
 26 27 0 0 0
SMALL
GASTEIGER

@<TRIPOS>ATOM
      1 C          13.6160   37.4165   10.5774 C.ar    1  UNL1        0.0857
      2 C          12.8017   36.4147   10.0624 C.ar    1  UNL1        0.0408
      3 C          13.1860   34.9902    9.8548 C.3     1  UNL1        0.0500
      4 C          11.6089   38.1949   10.0791 C.ar    1  UNL1        0.1085
      5 C          12.8381   38.5599   10.5839 C.ar    1  UNL1        0.0153
      6 C          13.2294   39.9251   11.0397 C.3     1  UNL1        0.0342
      7 N          11.5755   36.8860    9.7571 N.ar    1  UNL1       -0.3451
      8 H          10.8184   36.3823    9.3800 H       1  UNL1        0.1668
      9 C          10.1737   39.7756    8.7029 C.2     1  UNL1        0.3057
     10 O          10.8704   39.6178    7.6635 O.2     1  UNL1       -0.2524
     11 N          10.5041   39.0917    9.9157 N.am    1  UNL1       -0.2554
     12 N           9.0409   40.6430    8.6817 N.am    1  UNL1       -0.2846
     13 H           9.9277   39.2499   10.6979 H       1  UNL1        0.1578
     14 H           8.5090   40.7536    9.5028 H       1  UNL1        0.1513
     15 C           8.6481   41.3686    7.4842 C.3     1  UNL1        0.1177
     16 C           7.4650   42.2216    7.7783 C.ar    1  UNL1       -0.0025
     17 C           7.1473   43.2928    6.9359 C.ar    1  UNL1       -0.0026
     18 C           6.0230   44.0812    7.2000 C.ar    1  UNL1       -0.0003
     19 C           5.2127   43.7962    8.3033 C.ar    1  UNL1       -0.0000
     20 C           5.5250   42.7214    9.1416 C.ar    1  UNL1       -0.0003
     21 C           6.6493   41.9327    8.8779 C.ar    1  UNL1       -0.0026
     22 C          15.0187   37.2933   11.0242 C.2     1  UNL1        0.3421
     23 O          15.4156   37.9262   12.0404 O.2     1  UNL1       -0.2449
     24 O          15.9062   36.4788   10.3138 O.3     1  UNL1       -0.4454
     25 C          16.6352   35.8109    8.1103 C.3     1  UNL1        0.0513
     26 C          16.5880   36.9200    9.1455 C.3     1  UNL1        0.2089
@<TRIPOS>BOND
     1    25    26    1
     2    26    24    1
     3    22    24    1
     4    22     1    1
     5     2     7   ar
     6     3     2    1
     7     4    11    1
     8     9    12   am
     9    15    12    1
    10    15    16    1
    11    17    18   ar
    12    19    20   ar
    13    21    16   ar
    14     5     1   ar
    15     6     5    1
    16     7     4   ar
    17    11     9   am
    18    22    23    2
    19     1     2   ar
    20     4     5   ar
    21     9    10    2
    22    16    17   ar
    23    18    19   ar
    24    20    21   ar
    25     7     8    1
    26    11    13    1
    27    12    14    1
@<TRIPOS>MOLECULE
MolPort-002-278-582 568467 CSSS00030047638 MCULE-7370993696 PubChem-959490 ZINC000000568467 ZINC00568467
 26 27 0 0 0
SMALL
GASTEIGER

@<TRIPOS>ATOM
      1 C          15.7102   41.7497    8.5198 C.ar    1  UNL1        0.0857
      2 C          16.2021   40.5978    9.1224 C.ar    1  UNL1        0.0408
      3 C          17.6199   40.3423    9.5028 C.3     1  UNL1        0.0500
      4 C          14.0987   40.2782    8.8667 C.ar    1  UNL1        0.1085
      5 C          14.3536   41.5337    8.3591 C.ar    1  UNL1        0.0153
      6 C          13.3490   42.4583    7.7588 C.3     1  UNL1        0.0342
      7 N          15.2213   39.6972    9.3358 N.ar    1  UNL1       -0.3451
      8 H          15.3067   38.8064    9.7462 H       1  UNL1        0.1668
      9 C          11.9561   39.4878    7.7546 C.2     1  UNL1        0.3057
     10 O          12.3196   39.8802    6.6124 O.2     1  UNL1       -0.2524
     11 N          12.8044   39.6652    8.8932 N.am    1  UNL1       -0.2554
     12 N          10.6869   38.8585    7.9260 N.am    1  UNL1       -0.2846
     13 H          12.4730   39.3409    9.7616 H       1  UNL1        0.1578
     14 H          10.4203   38.5588    8.8251 H       1  UNL1        0.1513
     15 C           9.7753   38.6463    6.8130 C.3     1  UNL1        0.1177
     16 C           8.5249   39.4224    7.0321 C.ar    1  UNL1       -0.0025
     17 C           8.4644   40.3801    8.0506 C.ar    1  UNL1       -0.0026
     18 C           7.2965   41.1247    8.2426 C.ar    1  UNL1       -0.0003
     19 C           6.1901   40.9163    7.4133 C.ar    1  UNL1       -0.0000
     20 C           6.2520   39.9648    6.3904 C.ar    1  UNL1       -0.0003
     21 C           7.4197   39.2198    6.1981 C.ar    1  UNL1       -0.0026
     22 C          16.4707   42.9544    8.1291 C.2     1  UNL1        0.3421
     23 O          17.6381   43.1351    8.5712 O.2     1  UNL1       -0.2449
     24 O          15.8907   43.8964    7.2736 O.3     1  UNL1       -0.4454
     25 C          17.6750   43.7831    5.6499 C.3     1  UNL1        0.0513
     26 C          16.1852   43.9567    5.8829 C.3     1  UNL1        0.2089
@<TRIPOS>BOND
     1    25    26    1
     2    26    24    1
     3    22    24    1
     4    22     1    1
     5     2     7   ar
     6     3     2    1
     7     4    11    1
     8     9    12   am
     9    15    12    1
    10    15    16    1
    11    17    18   ar
    12    19    20   ar
    13    21    16   ar
    14     5     1   ar
    15     6     5    1
    16     7     4   ar
    17    11     9   am
    18    22    23    2
    19     1     2   ar
    20     4     5   ar
    21     9    10    2
    22    16    17   ar
    23    18    19   ar
    24    20    21   ar
    25     7     8    1
    26    11    13    1
    27    12    14    1
@<TRIPOS>MOLECULE
MolPort-002-278-582 568467 CSSS00030047638 MCULE-7370993696 PubChem-959490 ZINC000000568467 ZINC00568467
 26 27 0 0 0
SMALL
GASTEIGER

@<TRIPOS>ATOM
      1 C          13.6326   38.3900   10.3856 C.ar    1  UNL1        0.0857
      2 C          13.4444   37.2173    9.6635 C.ar    1  UNL1        0.0408
      3 C          14.4501   36.1356    9.4672 C.3     1  UNL1        0.0500
      4 C          11.5996   38.2987    9.5247 C.ar    1  UNL1        0.1085
      5 C          12.4379   39.0801   10.2899 C.ar    1  UNL1        0.0153
      6 C          12.1015   40.4055   10.8855 C.3     1  UNL1        0.0342
      7 N          12.2045   37.1579    9.1364 N.ar    1  UNL1       -0.3451
      8 H          11.8228   36.4363    8.5862 H       1  UNL1        0.1668
      9 C           9.8728   39.4230    8.0393 C.2     1  UNL1        0.3057
     10 O          10.7417   39.8529    7.2325 O.2     1  UNL1       -0.2524
     11 N          10.2543   38.6522    9.1829 N.am    1  UNL1       -0.2554
     12 N           8.4907   39.7019    7.8199 N.am    1  UNL1       -0.2846
     13 H           9.5369   38.3409    9.7808 H       1  UNL1        0.1578
     14 H           7.8269   39.3581    8.4604 H       1  UNL1        0.1513
     15 C           8.0329   40.4786    6.6788 C.3     1  UNL1        0.1177
     16 C           7.1836   41.6071    7.1467 C.ar    1  UNL1       -0.0025
     17 C           6.4434   41.4836    8.3279 C.ar    1  UNL1       -0.0026
     18 C           5.6621   42.5520    8.7791 C.ar    1  UNL1       -0.0003
     19 C           5.6243   43.7462    8.0528 C.ar    1  UNL1       -0.0000
     20 C           6.3694   43.8734    6.8763 C.ar    1  UNL1       -0.0003
     21 C           7.1508   42.8053    6.4246 C.ar    1  UNL1       -0.0026
     22 C          14.8502   38.8166   11.1051 C.2     1  UNL1        0.3421
     23 O          14.9383   38.6488   12.3520 O.2     1  UNL1       -0.2449
     24 O          15.9014   39.4126   10.4012 O.3     1  UNL1       -0.4454
     25 C          16.9241   41.2557    9.2222 C.3     1  UNL1        0.0513
     26 C          15.6921   40.3837    9.3826 C.3     1  UNL1        0.2089
@<TRIPOS>BOND
     1    25    26    1
     2    26    24    1
     3    22    24    1
     4    22     1    1
     5     2     7   ar
     6     3     2    1
     7     4    11    1
     8     9    12   am
     9    15    12    1
    10    15    16    1
    11    17    18   ar
    12    19    20   ar
    13    21    16   ar
    14     5     1   ar
    15     6     5    1
    16     7     4   ar
    17    11     9   am
    18    22    23    2
    19     1     2   ar
    20     4     5   ar
    21     9    10    2
    22    16    17   ar
    23    18    19   ar
    24    20    21   ar
    25     7     8    1
    26    11    13    1
    27    12    14    1
@<TRIPOS>MOLECULE
MolPort-002-278-582 568467 CSSS00030047638 MCULE-7370993696 PubChem-959490 ZINC000000568467 ZINC00568467
 26 27 0 0 0
SMALL
GASTEIGER

@<TRIPOS>ATOM
      1 C           5.5042   43.0498    9.0856 C.ar    1  UNL1        0.0857
      2 C           5.8249   44.1149    8.2521 C.ar    1  UNL1        0.0408
      3 C           4.8620   44.9350    7.4646 C.3     1  UNL1        0.0500
      4 C           7.6839   43.4106    9.0523 C.ar    1  UNL1        0.1085
      5 C           6.7092   42.6027    9.5963 C.ar    1  UNL1        0.0153
      6 C           6.9335   41.4743   10.5454 C.3     1  UNL1        0.0342
      7 N           7.1547   44.3383    8.2292 N.ar    1  UNL1       -0.3451
      8 H           7.6359   45.0303    7.7206 H       1  UNL1        0.1668
      9 C          10.0003   42.4902    8.5631 C.2     1  UNL1        0.3057
     10 O           9.6055   41.8309    7.5631 O.2     1  UNL1       -0.2524
     11 N           9.0842   43.2825    9.3250 N.am    1  UNL1       -0.2554
     12 N          11.3737   42.4537    8.9489 N.am    1  UNL1       -0.2846
     13 H           9.4441   43.7777   10.0960 H       1  UNL1        0.1578
     14 H          11.6634   42.9748    9.7323 H       1  UNL1        0.1513
     15 C          12.3583   41.6700    8.2201 C.3     1  UNL1        0.1177
     16 C          13.1474   40.8426    9.1722 C.ar    1  UNL1       -0.0025
     17 C          14.5096   40.6188    8.9431 C.ar    1  UNL1       -0.0026
     18 C          15.2561   39.8592    9.8493 C.ar    1  UNL1       -0.0003
     19 C          14.6427   39.3273   10.9877 C.ar    1  UNL1       -0.0000
     20 C          13.2832   39.5567   11.2216 C.ar    1  UNL1       -0.0003
     21 C          12.5363   40.3161   10.3156 C.ar    1  UNL1       -0.0026
     22 C           4.1612   42.5039    9.3696 C.2     1  UNL1        0.3421
     23 O           3.2032   43.2840    9.6234 O.2     1  UNL1       -0.2449
     24 O           3.9568   41.1205    9.3628 O.3     1  UNL1       -0.4454
     25 C           3.4891   41.2720   11.7275 C.3     1  UNL1        0.0513
     26 C           3.8026   40.3598   10.5554 C.3     1  UNL1        0.2089
@<TRIPOS>BOND
     1    25    26    1
     2    26    24    1
     3    22    24    1
     4    22     1    1
     5     2     7   ar
     6     3     2    1
     7     4    11    1
     8     9    12   am
     9    15    12    1
    10    15    16    1
    11    17    18   ar
    12    19    20   ar
    13    21    16   ar
    14     5     1   ar
    15     6     5    1
    16     7     4   ar
    17    11     9   am
    18    22    23    2
    19     1     2   ar
    20     4     5   ar
    21     9    10    2
    22    16    17   ar
    23    18    19   ar
    24    20    21   ar
    25     7     8    1
    26    11    13    1
    27    12    14    1
