@<TRIPOS>MOLECULE
MolPort-007-723-584 6818378 CHEMBL1321432 ChemDiv-E157-6429 MCULE-4634491322 PubChem-16017478 ZINC000006818378 ZINC06818378
 27 29 0 0 0
SMALL
GASTEIGER

@<TRIPOS>ATOM
      1 C           9.6976   41.2224    6.4965 C.ar    1  UNL1        0.2593
      2 C          12.0075   41.7999    6.6693 C.ar    1  UNL1        0.1893
      3 N          10.3788   41.0241    5.3471 N.ar    1  UNL1       -0.1187
      4 N          11.6670   41.3468    5.4423 N.ar    1  UNL1       -0.1239
      5 S          10.6917   41.8206    7.7174 S.2     1  UNL1       -0.0102
      6 C          14.0023   43.3619    6.5234 C.2     1  UNL1        0.2271
      7 N          13.3271   42.2107    7.0393 N.am    1  UNL1       -0.2627
      8 O          13.4468   44.1132    5.6757 O.2     1  UNL1       -0.2747
      9 H          13.8069   41.6594    7.6990 H       1  UNL1        0.1568
     10 C          15.3821   43.6666    7.0019 C.3     1  UNL1        0.0769
     11 C          16.2774   44.1053    5.8323 C.3     1  UNL1        0.0091
     12 C          17.7628   43.7899    6.0499 C.3     1  UNL1        0.0005
     13 C          18.1291   43.8567    7.5295 C.3     1  UNL1        0.0000
     14 C          17.3501   42.8157    8.3457 C.3     1  UNL1        0.0005
     15 C          15.9726   42.4774    7.7589 C.3     1  UNL1        0.0091
     16 S           7.9923   40.8708    6.6879 S.O2    1  UNL1        0.1010
     17 O           7.8150   39.5015    7.2817 O.2     1  UNL1       -0.1477
     18 O           7.3335   40.9061    5.3372 O.2     1  UNL1       -0.1477
     19 C           7.5735   43.4539    7.5059 C.3     1  UNL1        0.1392
     20 N           7.2657   42.0494    7.7396 N.pl3   1  UNL1       -0.1870
     21 C           6.4018   41.6608    8.8268 C.ar    1  UNL1        0.0689
     22 C           6.8557   41.7014   10.1558 C.ar    1  UNL1        0.0158
     23 C           6.0155   41.3287   11.2084 C.ar    1  UNL1       -0.0029
     24 C           4.7097   40.9098   10.9443 C.ar    1  UNL1       -0.0218
     25 C           3.8158   40.5135   12.0633 C.3     1  UNL1        0.0310
     26 C           4.2446   40.8631    9.6283 C.ar    1  UNL1       -0.0029
     27 C           5.0856   41.2364    8.5761 C.ar    1  UNL1        0.0158
@<TRIPOS>BOND
     1    19    20    1
     2    22    23   ar
     3    24    26   ar
     4    25    24    1
     5    27    21   ar
     6     1     5   ar
     7     2     7    1
     8     2     5   ar
     9    10     6    1
    10    10    11    1
    11    11    12    1
    12    12    13    1
    13    13    14    1
    14    14    15    1
    15    15    10    1
    16    20    21    1
    17     3     4   ar
    18     7     6   am
    19    16    20    1
    20    16     1    1
    21    21    22   ar
    22    23    24   ar
    23    26    27   ar
    24     1     3   ar
    25     2     4   ar
    26     6     8    2
    27    16    17    2
    28    16    18    2
    29     7     9    1
@<TRIPOS>MOLECULE
MolPort-007-723-584 6818378 CHEMBL1321432 ChemDiv-E157-6429 MCULE-4634491322 PubChem-16017478 ZINC000006818378 ZINC06818378
 27 29 0 0 0
SMALL
GASTEIGER

@<TRIPOS>ATOM
      1 C           9.2076   42.2305    7.7134 C.ar    1  UNL1        0.2593
      2 C          11.5629   42.0356    8.0504 C.ar    1  UNL1        0.1893
      3 N           9.5663   42.3425    9.0108 N.ar    1  UNL1       -0.1187
      4 N          10.8798   42.2330    9.1998 N.ar    1  UNL1       -0.1239
      5 S          10.5415   41.9870    6.7144 S.2     1  UNL1       -0.0102
      6 C          13.8612   42.7664    7.2606 C.2     1  UNL1        0.2271
      7 N          12.9838   41.8884    7.9724 N.am    1  UNL1       -0.2627
      8 O          13.4108   43.7647    6.6343 O.2     1  UNL1       -0.2747
      9 H          13.3887   41.1250    8.4442 H       1  UNL1        0.1568
     10 C          15.3266   42.4862    7.2662 C.3     1  UNL1        0.0769
     11 C          15.7048   41.6002    8.4637 C.3     1  UNL1        0.0091
     12 C          17.1468   41.8077    8.9442 C.3     1  UNL1        0.0005
     13 C          18.0650   42.1830    7.7849 C.3     1  UNL1        0.0000
     14 C          17.6376   43.5088    7.1398 C.3     1  UNL1        0.0005
     15 C          16.1310   43.7854    7.2397 C.3     1  UNL1        0.0091
     16 S           7.5537   42.3519    7.1491 S.O2    1  UNL1        0.1010
     17 O           7.5219   42.3271    5.6466 O.2     1  UNL1       -0.1477
     18 O           6.9701   43.6516    7.6283 O.2     1  UNL1       -0.1477
     19 C           6.7783   39.7223    7.1119 C.3     1  UNL1        0.1392
     20 N           6.6257   41.0161    7.7636 N.pl3   1  UNL1       -0.1870
     21 C           5.7130   41.1756    8.8685 C.ar    1  UNL1        0.0689
     22 C           6.1919   41.3930   10.1713 C.ar    1  UNL1        0.0158
     23 C           5.3057   41.5518   11.2400 C.ar    1  UNL1       -0.0029
     24 C           3.9280   41.4947   11.0187 C.ar    1  UNL1       -0.0218
     25 C           2.9851   41.6638   12.1547 C.3     1  UNL1        0.0310
     26 C           3.4368   41.2782    9.7294 C.ar    1  UNL1       -0.0029
     27 C           4.3240   41.1197    8.6610 C.ar    1  UNL1        0.0158
@<TRIPOS>BOND
     1    19    20    1
     2    22    23   ar
     3    24    26   ar
     4    25    24    1
     5    27    21   ar
     6     1     5   ar
     7     2     7    1
     8     2     5   ar
     9    10     6    1
    10    10    11    1
    11    11    12    1
    12    12    13    1
    13    13    14    1
    14    14    15    1
    15    15    10    1
    16    20    21    1
    17     3     4   ar
    18     7     6   am
    19    16    20    1
    20    16     1    1
    21    21    22   ar
    22    23    24   ar
    23    26    27   ar
    24     1     3   ar
    25     2     4   ar
    26     6     8    2
    27    16    17    2
    28    16    18    2
    29     7     9    1
@<TRIPOS>MOLECULE
MolPort-007-723-584 6818378 CHEMBL1321432 ChemDiv-E157-6429 MCULE-4634491322 PubChem-16017478 ZINC000006818378 ZINC06818378
 27 29 0 0 0
SMALL
GASTEIGER

@<TRIPOS>ATOM
      1 C           9.7870   41.0993    6.6732 C.ar    1  UNL1        0.2593
      2 C          12.0866   41.7345    6.7594 C.ar    1  UNL1        0.1893
      3 N          10.4531   40.8272    5.5301 N.ar    1  UNL1       -0.1187
      4 N          11.7355   41.1820    5.5770 N.ar    1  UNL1       -0.1239
      5 S          10.7881   41.8092    7.8266 S.2     1  UNL1       -0.0102
      6 C          14.0206   43.3577    6.5048 C.2     1  UNL1        0.2271
      7 N          13.4030   42.1988    7.0730 N.am    1  UNL1       -0.2627
      8 O          13.4115   44.0671    5.6579 O.2     1  UNL1       -0.2747
      9 H          13.9233   41.6818    7.7296 H       1  UNL1        0.1568
     10 C          15.4045   43.7210    6.9275 C.3     1  UNL1        0.0769
     11 C          16.2560   44.1196    5.7116 C.3     1  UNL1        0.0091
     12 C          17.7544   43.8526    5.9029 C.3     1  UNL1        0.0005
     13 C          18.1589   44.0060    7.3661 C.3     1  UNL1        0.0000
     14 C          17.4297   42.9906    8.2570 C.3     1  UNL1        0.0005
     15 C          16.0461   42.5881    7.7279 C.3     1  UNL1        0.0091
     16 S           8.0929   40.7292    6.9218 S.O2    1  UNL1        0.1010
     17 O           7.9213   39.2570    7.1707 O.2     1  UNL1       -0.1477
     18 O           7.3256   41.1081    5.6859 O.2     1  UNL1       -0.1477
     19 C           8.1010   41.3535    9.5915 C.3     1  UNL1        0.1392
     20 N           7.4950   41.6154    8.2930 N.pl3   1  UNL1       -0.1870
     21 C           6.4181   42.5660    8.1666 C.ar    1  UNL1        0.0689
     22 C           5.2069   42.3760    8.8527 C.ar    1  UNL1        0.0158
     23 C           4.1661   43.3007    8.7323 C.ar    1  UNL1       -0.0029
     24 C           4.3240   44.4278    7.9231 C.ar    1  UNL1       -0.0218
     25 C           3.2176   45.4116    7.7950 C.3     1  UNL1        0.0310
     26 C           5.5218   44.6299    7.2340 C.ar    1  UNL1       -0.0029
     27 C           6.5624   43.7045    7.3552 C.ar    1  UNL1        0.0158
@<TRIPOS>BOND
     1    19    20    1
     2    22    23   ar
     3    24    26   ar
     4    25    24    1
     5    27    21   ar
     6     1     5   ar
     7     2     7    1
     8     2     5   ar
     9    10     6    1
    10    10    11    1
    11    11    12    1
    12    12    13    1
    13    13    14    1
    14    14    15    1
    15    15    10    1
    16    20    21    1
    17     3     4   ar
    18     7     6   am
    19    16    20    1
    20    16     1    1
    21    21    22   ar
    22    23    24   ar
    23    26    27   ar
    24     1     3   ar
    25     2     4   ar
    26     6     8    2
    27    16    17    2
    28    16    18    2
    29     7     9    1
@<TRIPOS>MOLECULE
MolPort-007-723-584 6818378 CHEMBL1321432 ChemDiv-E157-6429 MCULE-4634491322 PubChem-16017478 ZINC000006818378 ZINC06818378
 27 29 0 0 0
SMALL
GASTEIGER

@<TRIPOS>ATOM
      1 C           9.9680   41.5976    9.9069 C.ar    1  UNL1        0.2593
      2 C          12.1388   41.5629    8.9139 C.ar    1  UNL1        0.1893
      3 N          10.1674   40.5247    9.1108 N.ar    1  UNL1       -0.1187
      4 N          11.3775   40.5050    8.5559 N.ar    1  UNL1       -0.1239
      5 S          11.3233   42.5960    9.9619 S.2     1  UNL1       -0.0102
      6 C          13.8400   42.5459    7.3079 C.2     1  UNL1        0.2271
      7 N          13.4785   41.7815    8.4622 N.am    1  UNL1       -0.2627
      8 O          12.9582   43.0949    6.5920 O.2     1  UNL1       -0.2747
      9 H          14.2069   41.3753    8.9852 H       1  UNL1        0.1568
     10 C          15.2831   42.6874    6.9564 C.3     1  UNL1        0.0769
     11 C          16.1728   42.1837    8.1039 C.3     1  UNL1        0.0091
     12 C          17.5446   42.8682    8.1572 C.3     1  UNL1        0.0005
     13 C          18.0215   43.2557    6.7606 C.3     1  UNL1        0.0000
     14 C          17.0687   44.2649    6.1046 C.3     1  UNL1        0.0005
     15 C          15.6118   44.1286    6.5685 C.3     1  UNL1        0.0091
     16 S           8.4837   41.8893   10.7901 S.O2    1  UNL1        0.1010
     17 O           8.3947   43.3386   11.1780 O.2     1  UNL1       -0.1477
     18 O           8.4861   41.0495   12.0368 O.2     1  UNL1       -0.1477
     19 C           7.3804   40.9913    8.4462 C.3     1  UNL1        0.1392
     20 N           7.1191   41.4784    9.7939 N.pl3   1  UNL1       -0.1870
     21 C           5.7656   41.6317   10.2668 C.ar    1  UNL1        0.0689
     22 C           4.8973   42.5629    9.6727 C.ar    1  UNL1        0.0158
     23 C           3.5846   42.7068   10.1295 C.ar    1  UNL1       -0.0029
     24 C           3.1236   41.9206   11.1876 C.ar    1  UNL1       -0.0218
     25 C           1.7276   42.0730   11.6736 C.3     1  UNL1        0.0310
     26 C           3.9752   40.9913   11.7891 C.ar    1  UNL1       -0.0029
     27 C           5.2880   40.8479   11.3313 C.ar    1  UNL1        0.0158
@<TRIPOS>BOND
     1    19    20    1
     2    22    23   ar
     3    24    26   ar
     4    25    24    1
     5    27    21   ar
     6     1     5   ar
     7     2     7    1
     8     2     5   ar
     9    10     6    1
    10    10    11    1
    11    11    12    1
    12    12    13    1
    13    13    14    1
    14    14    15    1
    15    15    10    1
    16    20    21    1
    17     3     4   ar
    18     7     6   am
    19    16    20    1
    20    16     1    1
    21    21    22   ar
    22    23    24   ar
    23    26    27   ar
    24     1     3   ar
    25     2     4   ar
    26     6     8    2
    27    16    17    2
    28    16    18    2
    29     7     9    1
@<TRIPOS>MOLECULE
MolPort-007-723-584 6818378 CHEMBL1321432 ChemDiv-E157-6429 MCULE-4634491322 PubChem-16017478 ZINC000006818378 ZINC06818378
 27 29 0 0 0
SMALL
GASTEIGER

@<TRIPOS>ATOM
      1 C          11.1908   40.4529   10.6261 C.ar    1  UNL1        0.2593
      2 C           9.1284   41.6554   10.6318 C.ar    1  UNL1        0.1893
      3 N          10.8089   40.8403   11.8625 N.ar    1  UNL1       -0.1187
      4 N           9.6592   41.5118   11.8665 N.ar    1  UNL1       -0.1239
      5 S          10.0865   40.9369    9.4501 S.2     1  UNL1       -0.0102
      6 C           7.6237   43.0835    9.1703 C.2     1  UNL1        0.2271
      7 N           7.8986   42.3326   10.3569 N.am    1  UNL1       -0.2627
      8 O           8.4889   43.1950    8.2590 O.2     1  UNL1       -0.2747
      9 H           7.1875   42.2778   11.0355 H       1  UNL1        0.1568
     10 C           6.2920   43.7395    9.0212 C.3     1  UNL1        0.0769
     11 C           5.1752   42.8266    9.5519 C.3     1  UNL1        0.0091
     12 C           3.8214   43.0597    8.8693 C.3     1  UNL1        0.0005
     13 C           3.6599   44.5177    8.4495 C.3     1  UNL1        0.0000
     14 C           4.7277   44.9258    7.4249 C.3     1  UNL1        0.0005
     15 C           6.0483   44.1571    7.5714 C.3     1  UNL1        0.0091
     16 S          12.6476   39.5357   10.3024 S.O2    1  UNL1        0.1010
     17 O          13.3600   39.2340   11.5910 O.2     1  UNL1       -0.1477
     18 O          13.5526   40.3536    9.4242 O.2     1  UNL1       -0.1477
     19 C          10.8430   37.8259    9.1460 C.3     1  UNL1        0.1392
     20 N          12.2361   38.0424    9.5125 N.pl3   1  UNL1       -0.1870
     21 C          13.2290   37.0320    9.2431 C.ar    1  UNL1        0.0689
     22 C          14.3446   37.3166    8.4379 C.ar    1  UNL1        0.0158
     23 C          15.3080   36.3374    8.1817 C.ar    1  UNL1       -0.0029
     24 C          15.1672   35.0599    8.7281 C.ar    1  UNL1       -0.0218
     25 C          16.1916   34.0183    8.4562 C.3     1  UNL1        0.0310
     26 C          14.0632   34.7616    9.5297 C.ar    1  UNL1       -0.0029
     27 C          13.1001   35.7419    9.7856 C.ar    1  UNL1        0.0158
@<TRIPOS>BOND
     1    19    20    1
     2    22    23   ar
     3    24    26   ar
     4    25    24    1
     5    27    21   ar
     6     1     5   ar
     7     2     7    1
     8     2     5   ar
     9    10     6    1
    10    10    11    1
    11    11    12    1
    12    12    13    1
    13    13    14    1
    14    14    15    1
    15    15    10    1
    16    20    21    1
    17     3     4   ar
    18     7     6   am
    19    16    20    1
    20    16     1    1
    21    21    22   ar
    22    23    24   ar
    23    26    27   ar
    24     1     3   ar
    25     2     4   ar
    26     6     8    2
    27    16    17    2
    28    16    18    2
    29     7     9    1
@<TRIPOS>MOLECULE
MolPort-007-723-584 6818378 CHEMBL1321432 ChemDiv-E157-6429 MCULE-4634491322 PubChem-16017478 ZINC000006818378 ZINC06818378
 27 29 0 0 0
SMALL
GASTEIGER

@<TRIPOS>ATOM
      1 C          11.7840   40.8711    9.3513 C.ar    1  UNL1        0.2593
      2 C           9.5496   41.4435    9.9667 C.ar    1  UNL1        0.1893
      3 N          11.6105   42.1980    9.5353 N.ar    1  UNL1       -0.1187
      4 N          10.3643   42.5182    9.8777 N.ar    1  UNL1       -0.1239
      5 S          10.3600   40.0115    9.6158 S.2     1  UNL1       -0.0102
      6 C           7.1145   41.9310    9.4444 C.2     1  UNL1        0.2271
      7 N           8.1647   41.5089   10.3198 N.am    1  UNL1       -0.2627
      8 O           7.3619   42.2845    8.2589 O.2     1  UNL1       -0.2747
      9 H           7.9154   41.2434   11.2344 H       1  UNL1        0.1568
     10 C           5.7120   41.9496    9.9529 C.3     1  UNL1        0.0769
     11 C           5.6086   41.1932   11.2868 C.3     1  UNL1        0.0091
     12 C           4.2235   40.5825   11.5354 C.3     1  UNL1        0.0005
     13 C           3.1254   41.4316   10.9021 C.3     1  UNL1        0.0000
     14 C           3.2877   41.5089    9.3776 C.3     1  UNL1        0.0005
     15 C           4.7444   41.3980    8.9064 C.3     1  UNL1        0.0091
     16 S          13.3167   40.1432    8.9160 S.O2    1  UNL1        0.1010
     17 O          14.3868   41.1971    8.8596 O.2     1  UNL1       -0.1477
     18 O          13.1859   39.5073    7.5602 O.2     1  UNL1       -0.1477
     19 C          13.7475   39.3395   11.5017 C.3     1  UNL1        0.1392
     20 N          13.7536   38.9463   10.0991 N.pl3   1  UNL1       -0.1870
     21 C          14.1342   37.6093    9.7157 C.ar    1  UNL1        0.0689
     22 C          13.2613   36.5272    9.9182 C.ar    1  UNL1        0.0158
     23 C          13.6301   35.2330    9.5419 C.ar    1  UNL1       -0.0029
     24 C          14.8781   35.0047    8.9582 C.ar    1  UNL1       -0.0218
     25 C          15.2707   33.6287    8.5575 C.3     1  UNL1        0.0310
     26 C          15.7571   36.0702    8.7515 C.ar    1  UNL1       -0.0029
     27 C          15.3871   37.3644    9.1279 C.ar    1  UNL1        0.0158
@<TRIPOS>BOND
     1    19    20    1
     2    22    23   ar
     3    24    26   ar
     4    25    24    1
     5    27    21   ar
     6     1     5   ar
     7     2     7    1
     8     2     5   ar
     9    10     6    1
    10    10    11    1
    11    11    12    1
    12    12    13    1
    13    13    14    1
    14    14    15    1
    15    15    10    1
    16    20    21    1
    17     3     4   ar
    18     7     6   am
    19    16    20    1
    20    16     1    1
    21    21    22   ar
    22    23    24   ar
    23    26    27   ar
    24     1     3   ar
    25     2     4   ar
    26     6     8    2
    27    16    17    2
    28    16    18    2
    29     7     9    1
@<TRIPOS>MOLECULE
MolPort-007-723-584 6818378 CHEMBL1321432 ChemDiv-E157-6429 MCULE-4634491322 PubChem-16017478 ZINC000006818378 ZINC06818378
 27 29 0 0 0
SMALL
GASTEIGER

@<TRIPOS>ATOM
      1 C          14.0942   37.9445   10.7134 C.ar    1  UNL1        0.2593
      2 C          11.9654   37.9410    9.6328 C.ar    1  UNL1        0.1893
      3 N          13.8998   36.8590    9.9335 N.ar    1  UNL1       -0.1187
      4 N          12.7124   36.8558    9.3311 N.ar    1  UNL1       -0.1239
      5 S          12.7656   38.9794   10.6873 S.2     1  UNL1       -0.0102
      6 C          10.3418   39.1080    8.0702 C.2     1  UNL1        0.2271
      7 N          10.6530   38.1847    9.1181 N.am    1  UNL1       -0.2627
      8 O          11.2479   39.7891    7.5163 O.2     1  UNL1       -0.2747
      9 H           9.9075   37.6788    9.5149 H       1  UNL1        0.1568
     10 C           8.9223   39.2587    7.6363 C.3     1  UNL1        0.0769
     11 C           8.7822   38.9778    6.1318 C.3     1  UNL1        0.0091
     12 C           7.6114   39.7235    5.4789 C.3     1  UNL1        0.0005
     13 C           6.4613   39.9130    6.4634 C.3     1  UNL1        0.0000
     14 C           6.8898   40.7656    7.6660 C.3     1  UNL1        0.0005
     15 C           8.3794   40.6367    8.0135 C.3     1  UNL1        0.0091
     16 S          15.5655   38.2405   11.6168 S.O2    1  UNL1        0.1010
     17 O          16.1052   36.9454   12.1556 O.2     1  UNL1       -0.1477
     18 O          15.2541   39.1560   12.7676 O.2     1  UNL1       -0.1477
     19 C          18.1176   38.4584   10.6388 C.3     1  UNL1        0.1392
     20 N          16.7544   38.9681   10.5775 N.pl3   1  UNL1       -0.1870
     21 C          16.4199   40.0578    9.6944 C.ar    1  UNL1        0.0689
     22 C          15.1294   40.1727    9.1507 C.ar    1  UNL1        0.0158
     23 C          14.8059   41.2319    8.2986 C.ar    1  UNL1       -0.0029
     24 C          15.7702   42.1903    7.9791 C.ar    1  UNL1       -0.0218
     25 C          15.4266   43.3170    7.0733 C.3     1  UNL1        0.0310
     26 C          17.0576   42.0890    8.5109 C.ar    1  UNL1       -0.0029
     27 C          17.3802   41.0292    9.3634 C.ar    1  UNL1        0.0158
@<TRIPOS>BOND
     1    19    20    1
     2    22    23   ar
     3    24    26   ar
     4    25    24    1
     5    27    21   ar
     6     1     5   ar
     7     2     7    1
     8     2     5   ar
     9    10     6    1
    10    10    11    1
    11    11    12    1
    12    12    13    1
    13    13    14    1
    14    14    15    1
    15    15    10    1
    16    20    21    1
    17     3     4   ar
    18     7     6   am
    19    16    20    1
    20    16     1    1
    21    21    22   ar
    22    23    24   ar
    23    26    27   ar
    24     1     3   ar
    25     2     4   ar
    26     6     8    2
    27    16    17    2
    28    16    18    2
    29     7     9    1
@<TRIPOS>MOLECULE
MolPort-007-723-584 6818378 CHEMBL1321432 ChemDiv-E157-6429 MCULE-4634491322 PubChem-16017478 ZINC000006818378 ZINC06818378
 27 29 0 0 0
SMALL
GASTEIGER

@<TRIPOS>ATOM
      1 C           9.8709   41.1901    6.5807 C.ar    1  UNL1        0.2593
      2 C          12.1809   41.7907    6.6275 C.ar    1  UNL1        0.1893
      3 N          10.5118   40.9135    5.4244 N.ar    1  UNL1       -0.1187
      4 N          11.8001   41.2490    5.4493 N.ar    1  UNL1       -0.1239
      5 S          10.9035   41.8796    7.7187 S.2     1  UNL1       -0.0102
      6 C          14.0974   43.4420    6.4267 C.2     1  UNL1        0.2271
      7 N          13.5096   42.2339    6.9189 N.am    1  UNL1       -0.2627
      8 O          13.4476   44.2192    5.6748 O.2     1  UNL1       -0.2747
      9 H          14.0614   41.6644    7.5025 H       1  UNL1        0.1568
     10 C          15.4989   43.7754    6.8146 C.3     1  UNL1        0.0769
     11 C          16.3547   44.0547    5.5689 C.3     1  UNL1        0.0091
     12 C          17.8426   43.7393    5.7683 C.3     1  UNL1        0.0005
     13 C          18.2666   43.9749    7.2149 C.3     1  UNL1        0.0000
     14 C          17.5047   43.0536    8.1778 C.3     1  UNL1        0.0005
     15 C          16.1008   42.6739    7.6864 C.3     1  UNL1        0.0091
     16 S           8.1763   40.8442    6.8587 S.O2    1  UNL1        0.1010
     17 O           8.0116   39.4202    7.3106 O.2     1  UNL1       -0.1477
     18 O           7.4226   41.0385    5.5728 O.2     1  UNL1       -0.1477
     19 C           6.7247   43.0283    7.6584 C.3     1  UNL1        0.1392
     20 N           7.5545   41.9094    8.0842 N.pl3   1  UNL1       -0.1870
     21 C           7.8616   41.7157    9.4797 C.ar    1  UNL1        0.0689
     22 C           6.8387   41.6711   10.4417 C.ar    1  UNL1        0.0158
     23 C           7.1380   41.4789   11.7931 C.ar    1  UNL1       -0.0029
     24 C           8.4657   41.3291   12.1994 C.ar    1  UNL1       -0.0218
     25 C           8.7846   41.1244   13.6363 C.3     1  UNL1        0.0310
     26 C           9.4936   41.3723   11.2549 C.ar    1  UNL1       -0.0029
     27 C           9.1931   41.5643    9.9034 C.ar    1  UNL1        0.0158
@<TRIPOS>BOND
     1    19    20    1
     2    22    23   ar
     3    24    26   ar
     4    25    24    1
     5    27    21   ar
     6     1     5   ar
     7     2     7    1
     8     2     5   ar
     9    10     6    1
    10    10    11    1
    11    11    12    1
    12    12    13    1
    13    13    14    1
    14    14    15    1
    15    15    10    1
    16    20    21    1
    17     3     4   ar
    18     7     6   am
    19    16    20    1
    20    16     1    1
    21    21    22   ar
    22    23    24   ar
    23    26    27   ar
    24     1     3   ar
    25     2     4   ar
    26     6     8    2
    27    16    17    2
    28    16    18    2
    29     7     9    1
@<TRIPOS>MOLECULE
MolPort-007-723-584 6818378 CHEMBL1321432 ChemDiv-E157-6429 MCULE-4634491322 PubChem-16017478 ZINC000006818378 ZINC06818378
 27 29 0 0 0
SMALL
GASTEIGER

@<TRIPOS>ATOM
      1 C          10.3733   40.0800    6.5270 C.ar    1  UNL1        0.2593
      2 C          12.4230   40.9967    7.3378 C.ar    1  UNL1        0.1893
      3 N          10.6543   39.7058    7.7940 N.ar    1  UNL1       -0.1187
      4 N          11.7978   40.2159    8.2468 N.ar    1  UNL1       -0.1239
      5 S          11.5627   41.0914    5.8951 S.2     1  UNL1       -0.0102
      6 C          14.1530   42.7762    6.8083 C.2     1  UNL1        0.2271
      7 N          13.6653   41.6673    7.5698 N.am    1  UNL1       -0.2627
      8 O          13.4847   43.2461    5.8469 O.2     1  UNL1       -0.2747
      9 H          14.2272   41.3411    8.3094 H       1  UNL1        0.1568
     10 C          15.4717   43.3755    7.1657 C.3     1  UNL1        0.0769
     11 C          16.1906   43.8931    5.9097 C.3     1  UNL1        0.0091
     12 C          17.7194   43.8871    6.0363 C.3     1  UNL1        0.0005
     13 C          18.1536   44.1303    7.4786 C.3     1  UNL1        0.0000
     14 C          17.6462   43.0204    8.4099 C.3     1  UNL1        0.0005
     15 C          16.3299   42.3808    7.9465 C.3     1  UNL1        0.0091
     16 S           8.9296   39.5868    5.6662 S.O2    1  UNL1        0.1010
     17 O           8.7861   38.0916    5.7211 O.2     1  UNL1       -0.1477
     18 O           9.0499   40.0132    4.2298 O.2     1  UNL1       -0.1477
     19 C           6.2438   39.6707    6.2107 C.3     1  UNL1        0.1392
     20 N           7.5331   40.3232    6.3945 N.pl3   1  UNL1       -0.1870
     21 C           7.6308   41.5534    7.1405 C.ar    1  UNL1        0.0689
     22 C           7.1539   42.7605    6.6024 C.ar    1  UNL1        0.0158
     23 C           7.2454   43.9508    7.3288 C.ar    1  UNL1       -0.0029
     24 C           7.8160   43.9486    8.6034 C.ar    1  UNL1       -0.0218
     25 C           7.9133   45.2140    9.3763 C.3     1  UNL1        0.0310
     26 C           8.2955   42.7567    9.1512 C.ar    1  UNL1       -0.0029
     27 C           8.2033   41.5665    8.4240 C.ar    1  UNL1        0.0158
@<TRIPOS>BOND
     1    19    20    1
     2    22    23   ar
     3    24    26   ar
     4    25    24    1
     5    27    21   ar
     6     1     5   ar
     7     2     7    1
     8     2     5   ar
     9    10     6    1
    10    10    11    1
    11    11    12    1
    12    12    13    1
    13    13    14    1
    14    14    15    1
    15    15    10    1
    16    20    21    1
    17     3     4   ar
    18     7     6   am
    19    16    20    1
    20    16     1    1
    21    21    22   ar
    22    23    24   ar
    23    26    27   ar
    24     1     3   ar
    25     2     4   ar
    26     6     8    2
    27    16    17    2
    28    16    18    2
    29     7     9    1
@<TRIPOS>MOLECULE
MolPort-007-723-584 6818378 CHEMBL1321432 ChemDiv-E157-6429 MCULE-4634491322 PubChem-16017478 ZINC000006818378 ZINC06818378
 27 29 0 0 0
SMALL
GASTEIGER

@<TRIPOS>ATOM
      1 C           9.1015   42.1263    7.1279 C.ar    1  UNL1        0.2593
      2 C          11.4448   41.6711    7.1510 C.ar    1  UNL1        0.1893
      3 N           9.4519   41.1198    6.2981 N.ar    1  UNL1       -0.1187
      4 N          10.7589   40.8658    6.3096 N.ar    1  UNL1       -0.1239
      5 S          10.4343   42.7617    7.9382 S.2     1  UNL1       -0.0102
      6 C          13.8140   42.4944    6.7651 C.2     1  UNL1        0.2271
      7 N          12.8595   41.6063    7.3545 N.am    1  UNL1       -0.2627
      8 O          13.4452   43.4265    5.9991 O.2     1  UNL1       -0.2747
      9 H          13.2021   40.8969    7.9449 H       1  UNL1        0.1568
     10 C          15.2625   42.3046    7.0681 C.3     1  UNL1        0.0769
     11 C          15.4447   41.5137    8.3732 C.3     1  UNL1        0.0091
     12 C          16.7547   41.8358    9.1034 C.3     1  UNL1        0.0005
     13 C          17.8605   42.1987    8.1167 C.3     1  UNL1        0.0000
     14 C          17.5019   43.4567    7.3133 C.3     1  UNL1        0.0005
     15 C          15.9928   43.6466    7.1062 C.3     1  UNL1        0.0091
     16 S           7.4527   42.6766    7.3451 S.O2    1  UNL1        0.1010
     17 O           6.6762   42.4830    6.0728 O.2     1  UNL1       -0.1477
     18 O           7.4692   44.1398    7.6891 O.2     1  UNL1       -0.1477
     19 C           5.4008   41.1610    8.3501 C.3     1  UNL1        0.1392
     20 N           6.6960   41.7699    8.6212 N.pl3   1  UNL1       -0.1870
     21 C           7.3099   41.6362    9.9191 C.ar    1  UNL1        0.0689
     22 C           8.6688   41.9402   10.1066 C.ar    1  UNL1        0.0158
     23 C           9.2608   41.8143   11.3661 C.ar    1  UNL1       -0.0029
     24 C           8.5004   41.3820   12.4548 C.ar    1  UNL1       -0.0218
     25 C           9.1293   41.2482   13.7944 C.3     1  UNL1        0.0310
     26 C           7.1487   41.0751   12.2838 C.ar    1  UNL1       -0.0029
     27 C           6.5573   41.2016   11.0236 C.ar    1  UNL1        0.0158
@<TRIPOS>BOND
     1    19    20    1
     2    22    23   ar
     3    24    26   ar
     4    25    24    1
     5    27    21   ar
     6     1     5   ar
     7     2     7    1
     8     2     5   ar
     9    10     6    1
    10    10    11    1
    11    11    12    1
    12    12    13    1
    13    13    14    1
    14    14    15    1
    15    15    10    1
    16    20    21    1
    17     3     4   ar
    18     7     6   am
    19    16    20    1
    20    16     1    1
    21    21    22   ar
    22    23    24   ar
    23    26    27   ar
    24     1     3   ar
    25     2     4   ar
    26     6     8    2
    27    16    17    2
    28    16    18    2
    29     7     9    1
