@<TRIPOS>MOLECULE
MolPort-001-550-202 1139843 CSC046137627 CSSS00046137627 LN01004191 MCULE-2079171214 PubChem-1312780 ZINC000001139843 ZINC01139843
 31 33 0 0 0
SMALL
GASTEIGER

@<TRIPOS>ATOM
      1 C           7.9858   42.3005   15.8355 C.ar    1  UNL1        0.1535
      2 C           7.1266   42.1322   16.9321 C.ar    1  UNL1        0.0559
      3 C           6.7272   40.8610   17.3509 C.ar    1  UNL1        0.0881
      4 C           7.2196   39.7224   16.6818 C.ar    1  UNL1        0.1535
      5 C           8.0792   39.8908   15.5859 C.ar    1  UNL1        0.0559
      6 C           8.4807   41.1620   15.1688 C.ar    1  UNL1        0.0881
      7 C           5.5186   41.8213   19.3943 C.2     1  UNL1        0.2496
      8 O           4.3775   41.8149   19.9282 O.2     1  UNL1       -0.2698
      9 N           5.8552   40.7632   18.4855 N.am    1  UNL1       -0.2779
     10 H           5.4476   39.8838   18.6577 H       1  UNL1        0.1553
     11 C           6.4864   42.8771   19.7666 C.ar    1  UNL1        0.0537
     12 C           7.7080   42.5288   20.3624 C.ar    1  UNL1        0.0045
     13 C           8.6361   43.5160   20.7060 C.ar    1  UNL1        0.0001
     14 C           8.3532   44.8602   20.4506 C.ar    1  UNL1        0.0000
     15 C           7.1440   45.2168   19.8483 C.ar    1  UNL1        0.0001
     16 C           6.2169   44.2291   19.5048 C.ar    1  UNL1        0.0045
     17 C           8.9362   41.1897   12.6616 C.2     1  UNL1        0.2518
     18 O           7.7173   41.3216   12.3658 O.2     1  UNL1       -0.2697
     19 N           9.3494   41.2594   14.0330 N.am    1  UNL1       -0.2779
     20 H          10.3099   41.3846   14.2090 H       1  UNL1        0.1553
     21 C           9.9504   41.0142   11.5984 C.ar    1  UNL1        0.0811
     22 C          11.2762   40.6221   11.8841 C.ar    1  UNL1        0.1445
     23 C          12.2017   40.4705   10.8464 C.ar    1  UNL1        0.0298
     24 C          11.8229   40.7059    9.5234 C.ar    1  UNL1        0.0023
     25 C          10.5147   41.0950    9.2318 C.ar    1  UNL1        0.0003
     26 C           9.5856   41.2481   10.2635 C.ar    1  UNL1        0.0068
     27 F          11.6840   40.3863   13.1560 F       1  UNL1       -0.2040
     28 C           8.3017   43.9464   14.0101 C.3     1  UNL1        0.2525
     29 O           8.3228   43.5814   15.3835 O.3     1  UNL1       -0.4701
     30 C           7.8190   37.3948   17.2847 C.3     1  UNL1        0.2525
     31 O           6.8712   38.4416   17.1257 O.3     1  UNL1       -0.4701
@<TRIPOS>BOND
     1    28    29    1
     2     1    29    1
     3     2     3   ar
     4     3     9    1
     5     7    11    1
     6    12    13   ar
     7    14    15   ar
     8    16    11   ar
     9     4    31    1
    10     4     5   ar
    11    30    31    1
    12     6    19    1
    13     6     1   ar
    14    17    21    1
    15    22    27    1
    16    22    23   ar
    17    24    25   ar
    18    26    21   ar
    19     9     7   am
    20    19    17   am
    21     1     2   ar
    22     3     4   ar
    23     7     8    2
    24    11    12   ar
    25    13    14   ar
    26    15    16   ar
    27     5     6   ar
    28    17    18    2
    29    21    22   ar
    30    23    24   ar
    31    25    26   ar
    32     9    10    1
    33    19    20    1
@<TRIPOS>MOLECULE
MolPort-001-550-202 1139843 CSC046137627 CSSS00046137627 LN01004191 MCULE-2079171214 PubChem-1312780 ZINC000001139843 ZINC01139843
 31 33 0 0 0
SMALL
GASTEIGER

@<TRIPOS>ATOM
      1 C          12.2103   40.0596    6.6771 C.ar    1  UNL1        0.1535
      2 C          12.4514   41.3286    6.1290 C.ar    1  UNL1        0.0559
      3 C          12.4013   42.4799    6.9182 C.ar    1  UNL1        0.0881
      4 C          12.1352   42.3657    8.2976 C.ar    1  UNL1        0.1535
      5 C          11.8950   41.0968    8.8456 C.ar    1  UNL1        0.0559
      6 C          11.9477   39.9452    8.0568 C.ar    1  UNL1        0.0881
      7 C          13.9421   44.2104    5.8273 C.2     1  UNL1        0.2496
      8 O          13.9723   44.9776    4.8284 O.2     1  UNL1       -0.2698
      9 N          12.6680   43.7431    6.2933 N.am    1  UNL1       -0.2779
     10 H          11.9016   44.3491    6.1722 H       1  UNL1        0.1553
     11 C          15.2061   43.8694    6.5171 C.ar    1  UNL1        0.0537
     12 C          15.2633   42.7502    7.3613 C.ar    1  UNL1        0.0045
     13 C          16.4552   42.4100    8.0077 C.ar    1  UNL1        0.0001
     14 C          17.6024   43.1827    7.8101 C.ar    1  UNL1        0.0000
     15 C          17.5587   44.2931    6.9633 C.ar    1  UNL1        0.0001
     16 C          16.3667   44.6323    6.3172 C.ar    1  UNL1        0.0045
     17 C          12.3376   38.1754    9.8484 C.2     1  UNL1        0.2518
     18 O          13.0158   38.9523   10.5744 O.2     1  UNL1       -0.2697
     19 N          11.6780   38.6835    8.6810 N.am    1  UNL1       -0.2779
     20 H          10.9817   38.1186    8.2743 H       1  UNL1        0.1553
     21 C          12.1757   36.7525   10.2210 C.ar    1  UNL1        0.0811
     22 C          13.0228   35.7434    9.7136 C.ar    1  UNL1        0.1445
     23 C          12.8308   34.4107   10.0924 C.ar    1  UNL1        0.0298
     24 C          11.8023   34.0685   10.9723 C.ar    1  UNL1        0.0023
     25 C          10.9594   35.0593   11.4780 C.ar    1  UNL1        0.0003
     26 C          11.1458   36.3921   11.1037 C.ar    1  UNL1        0.0068
     27 F          14.0317   36.0344    8.8550 F       1  UNL1       -0.2040
     28 C          11.2125   38.7031    4.8591 C.3     1  UNL1        0.2525
     29 O          12.1952   38.9218    5.8622 O.3     1  UNL1       -0.4701
     30 C          11.0046   43.9194    9.8624 C.3     1  UNL1        0.2525
     31 O          12.1368   43.5055    9.1098 O.3     1  UNL1       -0.4701
@<TRIPOS>BOND
     1    28    29    1
     2     1    29    1
     3     2     3   ar
     4     3     9    1
     5     7    11    1
     6    12    13   ar
     7    14    15   ar
     8    16    11   ar
     9     4    31    1
    10     4     5   ar
    11    30    31    1
    12     6    19    1
    13     6     1   ar
    14    17    21    1
    15    22    27    1
    16    22    23   ar
    17    24    25   ar
    18    26    21   ar
    19     9     7   am
    20    19    17   am
    21     1     2   ar
    22     3     4   ar
    23     7     8    2
    24    11    12   ar
    25    13    14   ar
    26    15    16   ar
    27     5     6   ar
    28    17    18    2
    29    21    22   ar
    30    23    24   ar
    31    25    26   ar
    32     9    10    1
    33    19    20    1
@<TRIPOS>MOLECULE
MolPort-001-550-202 1139843 CSC046137627 CSSS00046137627 LN01004191 MCULE-2079171214 PubChem-1312780 ZINC000001139843 ZINC01139843
 31 33 0 0 0
SMALL
GASTEIGER

@<TRIPOS>ATOM
      1 C          10.0779   40.5750    9.6617 C.ar    1  UNL1        0.1535
      2 C          11.2130   40.1623   10.3760 C.ar    1  UNL1        0.0559
      3 C          11.3263   40.3888   11.7496 C.ar    1  UNL1        0.0881
      4 C          10.2691   41.0149   12.4402 C.ar    1  UNL1        0.1535
      5 C           9.1340   41.4269   11.7260 C.ar    1  UNL1        0.0559
      6 C           9.0196   41.1979   10.3528 C.ar    1  UNL1        0.0881
      7 C          13.6137   39.2390   11.8154 C.2     1  UNL1        0.2496
      8 O          14.7666   39.4169   12.2913 O.2     1  UNL1       -0.2698
      9 N          12.5104   39.9311   12.4174 N.am    1  UNL1       -0.2779
     10 H          12.5721   40.1093   13.3836 H       1  UNL1        0.1553
     11 C          13.4299   38.2834   10.7005 C.ar    1  UNL1        0.0537
     12 C          13.9969   38.5538    9.4459 C.ar    1  UNL1        0.0045
     13 C          13.8419   37.6524    8.3888 C.ar    1  UNL1        0.0001
     14 C          13.1238   36.4690    8.5792 C.ar    1  UNL1        0.0000
     15 C          12.5641   36.1854    9.8275 C.ar    1  UNL1        0.0001
     16 C          12.7199   37.0872   10.8839 C.ar    1  UNL1        0.0045
     17 C           7.6078   42.9990    9.2315 C.2     1  UNL1        0.2518
     18 O           8.5730   43.8059    9.1428 O.2     1  UNL1       -0.2697
     19 N           7.8377   41.6583    9.6853 N.am    1  UNL1       -0.2779
     20 H           7.1243   40.9991    9.5250 H       1  UNL1        0.1553
     21 C           6.2469   43.4110    8.8219 C.ar    1  UNL1        0.0811
     22 C           6.0184   44.2274    7.6930 C.ar    1  UNL1        0.1445
     23 C           4.7141   44.5935    7.3447 C.ar    1  UNL1        0.0298
     24 C           3.6308   44.1563    8.1091 C.ar    1  UNL1        0.0023
     25 C           3.8473   43.3499    9.2275 C.ar    1  UNL1        0.0003
     26 C           5.1473   42.9807    9.5807 C.ar    1  UNL1        0.0068
     27 F           7.0439   44.6746    6.9261 F       1  UNL1       -0.2040
     28 C          11.1580   40.2462    7.4558 C.3     1  UNL1        0.2525
     29 O          10.0071   40.4042    8.2744 O.3     1  UNL1       -0.4701
     30 C           9.2208   41.0772   14.6846 C.3     1  UNL1        0.2525
     31 O          10.3463   41.1981   13.8256 O.3     1  UNL1       -0.4701
@<TRIPOS>BOND
     1    28    29    1
     2     1    29    1
     3     2     3   ar
     4     3     9    1
     5     7    11    1
     6    12    13   ar
     7    14    15   ar
     8    16    11   ar
     9     4    31    1
    10     4     5   ar
    11    30    31    1
    12     6    19    1
    13     6     1   ar
    14    17    21    1
    15    22    27    1
    16    22    23   ar
    17    24    25   ar
    18    26    21   ar
    19     9     7   am
    20    19    17   am
    21     1     2   ar
    22     3     4   ar
    23     7     8    2
    24    11    12   ar
    25    13    14   ar
    26    15    16   ar
    27     5     6   ar
    28    17    18    2
    29    21    22   ar
    30    23    24   ar
    31    25    26   ar
    32     9    10    1
    33    19    20    1
@<TRIPOS>MOLECULE
MolPort-001-550-202 1139843 CSC046137627 CSSS00046137627 LN01004191 MCULE-2079171214 PubChem-1312780 ZINC000001139843 ZINC01139843
 31 33 0 0 0
SMALL
GASTEIGER

@<TRIPOS>ATOM
      1 C          11.4898   40.0662    8.2810 C.ar    1  UNL1        0.1535
      2 C          10.1993   39.5529    8.0799 C.ar    1  UNL1        0.0559
      3 C           9.5710   39.6402    6.8354 C.ar    1  UNL1        0.0881
      4 C          10.2551   40.2257    5.7511 C.ar    1  UNL1        0.1535
      5 C          11.5455   40.7382    5.9523 C.ar    1  UNL1        0.0559
      6 C          12.1749   40.6485    7.1960 C.ar    1  UNL1        0.0881
      7 C           7.0386   39.8187    6.4983 C.2     1  UNL1        0.2496
      8 O           6.1172   39.2821    5.8274 O.2     1  UNL1       -0.2698
      9 N           8.2553   39.0853    6.6993 N.am    1  UNL1       -0.2779
     10 H           8.1797   38.1050    6.7486 H       1  UNL1        0.1553
     11 C           6.8132   41.1507    7.1026 C.ar    1  UNL1        0.0537
     12 C           7.1412   42.3102    6.3839 C.ar    1  UNL1        0.0045
     13 C           6.9201   43.5742    6.9384 C.ar    1  UNL1        0.0001
     14 C           6.3628   43.6896    8.2144 C.ar    1  UNL1        0.0000
     15 C           6.0231   42.5414    8.9342 C.ar    1  UNL1        0.0001
     16 C           6.2441   41.2781    8.3788 C.ar    1  UNL1        0.0045
     17 C          13.8420   42.5724    7.0800 C.2     1  UNL1        0.2518
     18 O          12.9390   43.4482    6.9899 O.2     1  UNL1       -0.2697
     19 N          13.4882   41.2059    7.3325 N.am    1  UNL1       -0.2779
     20 H          14.2075   40.6000    7.6240 H       1  UNL1        0.1553
     21 C          15.2682   42.9535    6.9776 C.ar    1  UNL1        0.0811
     22 C          15.7396   43.8326    5.9785 C.ar    1  UNL1        0.1445
     23 C          17.0974   44.1632    5.9191 C.ar    1  UNL1        0.0298
     24 C          17.9950   43.6273    6.8445 C.ar    1  UNL1        0.0023
     25 C          17.5381   42.7566    7.8348 C.ar    1  UNL1        0.0003
     26 C          16.1834   42.4224    7.8997 C.ar    1  UNL1        0.0068
     27 F          14.9002   44.3724    5.0599 F       1  UNL1       -0.2040
     28 C          11.3464   40.2423   10.7486 C.3     1  UNL1        0.2525
     29 O          12.0803   40.0344    9.5495 O.3     1  UNL1       -0.4701
     30 C           9.9133   39.3012    3.4776 C.3     1  UNL1        0.2525
     31 O           9.6586   40.2697    4.4858 O.3     1  UNL1       -0.4701
@<TRIPOS>BOND
     1    28    29    1
     2     1    29    1
     3     2     3   ar
     4     3     9    1
     5     7    11    1
     6    12    13   ar
     7    14    15   ar
     8    16    11   ar
     9     4    31    1
    10     4     5   ar
    11    30    31    1
    12     6    19    1
    13     6     1   ar
    14    17    21    1
    15    22    27    1
    16    22    23   ar
    17    24    25   ar
    18    26    21   ar
    19     9     7   am
    20    19    17   am
    21     1     2   ar
    22     3     4   ar
    23     7     8    2
    24    11    12   ar
    25    13    14   ar
    26    15    16   ar
    27     5     6   ar
    28    17    18    2
    29    21    22   ar
    30    23    24   ar
    31    25    26   ar
    32     9    10    1
    33    19    20    1
@<TRIPOS>MOLECULE
MolPort-001-550-202 1139843 CSC046137627 CSSS00046137627 LN01004191 MCULE-2079171214 PubChem-1312780 ZINC000001139843 ZINC01139843
 31 33 0 0 0
SMALL
GASTEIGER

@<TRIPOS>ATOM
      1 C          11.0006   42.0813    8.4561 C.ar    1  UNL1        0.1535
      2 C           9.6979   41.7780    8.0318 C.ar    1  UNL1        0.0559
      3 C           9.4149   41.5222    6.6881 C.ar    1  UNL1        0.0881
      4 C          10.4602   41.5369    5.7428 C.ar    1  UNL1        0.1535
      5 C          11.7627   41.8395    6.1673 C.ar    1  UNL1        0.0559
      6 C          12.0461   42.0927    7.5114 C.ar    1  UNL1        0.0881
      7 C           7.5772   39.9420    5.8609 C.2     1  UNL1        0.2496
      8 O           6.3946   39.6107    6.1423 O.2     1  UNL1       -0.2698
      9 N           8.0624   41.2092    6.3273 N.am    1  UNL1       -0.2779
     10 H           7.4022   41.9351    6.4075 H       1  UNL1        0.1553
     11 C           8.3979   39.0477    5.0144 C.ar    1  UNL1        0.0537
     12 C           8.3110   39.1323    3.6166 C.ar    1  UNL1        0.0045
     13 C           9.0913   38.3024    2.8063 C.ar    1  UNL1        0.0001
     14 C           9.9705   37.3850    3.3872 C.ar    1  UNL1        0.0000
     15 C          10.0722   37.3000    4.7780 C.ar    1  UNL1        0.0001
     16 C           9.2919   38.1304    5.5873 C.ar    1  UNL1        0.0045
     17 C          14.2781   43.2609    7.1271 C.2     1  UNL1        0.2518
     18 O          13.8111   44.0233    6.2376 O.2     1  UNL1       -0.2697
     19 N          13.3971   42.4086    7.8712 N.am    1  UNL1       -0.2779
     20 H          13.7495   42.0070    8.6980 H       1  UNL1        0.1553
     21 C          15.7235   43.2766    7.4438 C.ar    1  UNL1        0.0811
     22 C          16.5793   44.3040    6.9908 C.ar    1  UNL1        0.1445
     23 C          17.9401   44.2763    7.3134 C.ar    1  UNL1        0.0298
     24 C          18.4615   43.2348    8.0832 C.ar    1  UNL1        0.0023
     25 C          17.6231   42.2144    8.5343 C.ar    1  UNL1        0.0003
     26 C          16.2633   42.2361    8.2158 C.ar    1  UNL1        0.0068
     27 F          16.1121   45.3317    6.2390 F       1  UNL1       -0.2040
     28 C          10.6192   41.7508   10.8822 C.3     1  UNL1        0.2525
     29 O          11.2583   42.4035    9.7934 O.3     1  UNL1       -0.4701
     30 C          11.1529   40.6024    3.5548 C.3     1  UNL1        0.2525
     31 O          10.1996   41.2282    4.4028 O.3     1  UNL1       -0.4701
@<TRIPOS>BOND
     1    28    29    1
     2     1    29    1
     3     2     3   ar
     4     3     9    1
     5     7    11    1
     6    12    13   ar
     7    14    15   ar
     8    16    11   ar
     9     4    31    1
    10     4     5   ar
    11    30    31    1
    12     6    19    1
    13     6     1   ar
    14    17    21    1
    15    22    27    1
    16    22    23   ar
    17    24    25   ar
    18    26    21   ar
    19     9     7   am
    20    19    17   am
    21     1     2   ar
    22     3     4   ar
    23     7     8    2
    24    11    12   ar
    25    13    14   ar
    26    15    16   ar
    27     5     6   ar
    28    17    18    2
    29    21    22   ar
    30    23    24   ar
    31    25    26   ar
    32     9    10    1
    33    19    20    1
@<TRIPOS>MOLECULE
MolPort-001-550-202 1139843 CSC046137627 CSSS00046137627 LN01004191 MCULE-2079171214 PubChem-1312780 ZINC000001139843 ZINC01139843
 31 33 0 0 0
SMALL
GASTEIGER

@<TRIPOS>ATOM
      1 C          10.8076   39.1178    9.4139 C.ar    1  UNL1        0.1535
      2 C          10.5567   39.6633   10.6822 C.ar    1  UNL1        0.0559
      3 C          10.1504   40.9913   10.8320 C.ar    1  UNL1        0.0881
      4 C           9.9573   41.7921    9.6883 C.ar    1  UNL1        0.1535
      5 C          10.2076   41.2462    8.4203 C.ar    1  UNL1        0.0559
      6 C          10.6113   39.9175    8.2705 C.ar    1  UNL1        0.0881
      7 C           8.6598   41.4095   12.8720 C.2     1  UNL1        0.2496
      8 O           8.6933   41.2999   14.1267 O.2     1  UNL1       -0.2698
      9 N           9.9022   41.4795   12.1576 N.am    1  UNL1       -0.2779
     10 H          10.6585   41.9044   12.6231 H       1  UNL1        0.1553
     11 C           7.3517   41.5228   12.1895 C.ar    1  UNL1        0.0537
     12 C           6.4002   40.5006   12.3253 C.ar    1  UNL1        0.0045
     13 C           5.1557   40.6025   11.6967 C.ar    1  UNL1        0.0001
     14 C           4.8495   41.7311   10.9320 C.ar    1  UNL1        0.0000
     15 C           5.7861   42.7592   10.7990 C.ar    1  UNL1        0.0001
     16 C           7.0298   42.6567   11.4281 C.ar    1  UNL1        0.0045
     17 C          10.1971   39.8765    5.7563 C.2     1  UNL1        0.2518
     18 O           9.5327   40.9484    5.7727 O.2     1  UNL1       -0.2697
     19 N          10.8623   39.4309    6.9459 N.am    1  UNL1       -0.2779
     20 H          11.5488   38.7325    6.8443 H       1  UNL1        0.1553
     21 C          10.3373   39.1011    4.5038 C.ar    1  UNL1        0.0811
     22 C           9.2371   38.8327    3.6609 C.ar    1  UNL1        0.1445
     23 C           9.4169   38.0935    2.4871 C.ar    1  UNL1        0.0298
     24 C          10.6823   37.6159    2.1411 C.ar    1  UNL1        0.0023
     25 C          11.7755   37.8755    2.9689 C.ar    1  UNL1        0.0003
     26 C          11.6027   38.6131    4.1425 C.ar    1  UNL1        0.0068
     27 F           7.9916   39.2769    3.9628 F       1  UNL1       -0.2040
     28 C          11.6012   36.9859   10.3969 C.3     1  UNL1        0.2525
     29 O          11.2807   37.8073    9.2822 O.3     1  UNL1       -0.4701
     30 C          10.3693   44.2272    9.8906 C.3     1  UNL1        0.2525
     31 O           9.4974   43.1072    9.8213 O.3     1  UNL1       -0.4701
@<TRIPOS>BOND
     1    28    29    1
     2     1    29    1
     3     2     3   ar
     4     3     9    1
     5     7    11    1
     6    12    13   ar
     7    14    15   ar
     8    16    11   ar
     9     4    31    1
    10     4     5   ar
    11    30    31    1
    12     6    19    1
    13     6     1   ar
    14    17    21    1
    15    22    27    1
    16    22    23   ar
    17    24    25   ar
    18    26    21   ar
    19     9     7   am
    20    19    17   am
    21     1     2   ar
    22     3     4   ar
    23     7     8    2
    24    11    12   ar
    25    13    14   ar
    26    15    16   ar
    27     5     6   ar
    28    17    18    2
    29    21    22   ar
    30    23    24   ar
    31    25    26   ar
    32     9    10    1
    33    19    20    1
@<TRIPOS>MOLECULE
MolPort-001-550-202 1139843 CSC046137627 CSSS00046137627 LN01004191 MCULE-2079171214 PubChem-1312780 ZINC000001139843 ZINC01139843
 31 33 0 0 0
SMALL
GASTEIGER

@<TRIPOS>ATOM
      1 C           7.9560   42.9044   16.2956 C.ar    1  UNL1        0.1535
      2 C           7.1873   42.6087   17.4317 C.ar    1  UNL1        0.0559
      3 C           6.7207   41.3146   17.6737 C.ar    1  UNL1        0.0881
      4 C           7.0527   40.2775   16.7788 C.ar    1  UNL1        0.1535
      5 C           7.8219   40.5733   15.6434 C.ar    1  UNL1        0.0559
      6 C           8.2908   41.8669   15.4029 C.ar    1  UNL1        0.0881
      7 C           5.4817   42.0791   19.7806 C.2     1  UNL1        0.2496
      8 O           4.3937   41.8782   20.3831 O.2     1  UNL1       -0.2698
      9 N           5.9487   41.0825   18.8601 N.am    1  UNL1       -0.2779
     10 H           5.7164   40.1475   19.0627 H       1  UNL1        0.1553
     11 C           6.2644   43.2973   20.0860 C.ar    1  UNL1        0.0537
     12 C           7.5973   43.1853   20.5097 C.ar    1  UNL1        0.0045
     13 C           8.3512   44.3291   20.7880 C.ar    1  UNL1        0.0001
     14 C           7.7804   45.5956   20.6386 C.ar    1  UNL1        0.0000
     15 C           6.4572   45.7184   20.2073 C.ar    1  UNL1        0.0001
     16 C           5.7044   44.5742   19.9289 C.ar    1  UNL1        0.0045
     17 C           8.6273   41.8193   12.8773 C.2     1  UNL1        0.2518
     18 O           7.4063   41.6068   12.6433 O.2     1  UNL1       -0.2697
     19 N           9.0594   42.0991   14.2156 N.am    1  UNL1       -0.2779
     20 H           9.9591   42.4827   14.3284 H       1  UNL1        0.1553
     21 C           9.6107   41.8322   11.7716 C.ar    1  UNL1        0.0811
     22 C          10.7572   41.0084   11.7782 C.ar    1  UNL1        0.1445
     23 C          11.6608   41.0558   10.7115 C.ar    1  UNL1        0.0298
     24 C          11.4371   41.9163    9.6351 C.ar    1  UNL1        0.0023
     25 C          10.3069   42.7351    9.6208 C.ar    1  UNL1        0.0003
     26 C           9.4006   42.6925   10.6828 C.ar    1  UNL1        0.0068
     27 F          11.0116   40.1608   12.8061 F       1  UNL1       -0.2040
     28 C           8.5569   45.1874   17.0493 C.3     1  UNL1        0.2525
     29 O           8.3586   44.2180   16.0291 O.3     1  UNL1       -0.4701
     30 C           6.9119   37.8816   16.1623 C.3     1  UNL1        0.2525
     31 O           6.6381   38.9663   17.0386 O.3     1  UNL1       -0.4701
@<TRIPOS>BOND
     1    28    29    1
     2     1    29    1
     3     2     3   ar
     4     3     9    1
     5     7    11    1
     6    12    13   ar
     7    14    15   ar
     8    16    11   ar
     9     4    31    1
    10     4     5   ar
    11    30    31    1
    12     6    19    1
    13     6     1   ar
    14    17    21    1
    15    22    27    1
    16    22    23   ar
    17    24    25   ar
    18    26    21   ar
    19     9     7   am
    20    19    17   am
    21     1     2   ar
    22     3     4   ar
    23     7     8    2
    24    11    12   ar
    25    13    14   ar
    26    15    16   ar
    27     5     6   ar
    28    17    18    2
    29    21    22   ar
    30    23    24   ar
    31    25    26   ar
    32     9    10    1
    33    19    20    1
@<TRIPOS>MOLECULE
MolPort-001-550-202 1139843 CSC046137627 CSSS00046137627 LN01004191 MCULE-2079171214 PubChem-1312780 ZINC000001139843 ZINC01139843
 31 33 0 0 0
SMALL
GASTEIGER

@<TRIPOS>ATOM
      1 C          11.1248   41.1071    7.9392 C.ar    1  UNL1        0.1535
      2 C           9.8459   40.5305    7.9071 C.ar    1  UNL1        0.0559
      3 C           9.3854   39.8522    6.7762 C.ar    1  UNL1        0.0881
      4 C          10.2300   39.7151    5.6563 C.ar    1  UNL1        0.1535
      5 C          11.5089   40.2910    5.6889 C.ar    1  UNL1        0.0559
      6 C          11.9704   40.9670    6.8208 C.ar    1  UNL1        0.0881
      7 C           6.8337   39.9702    6.5939 C.2     1  UNL1        0.2496
      8 O           5.8757   39.3357    6.0771 O.2     1  UNL1       -0.2698
      9 N           8.0711   39.2792    6.8171 N.am    1  UNL1       -0.2779
     10 H           8.0124   38.3172    7.0180 H       1  UNL1        0.1553
     11 C           6.6321   41.3772    7.0057 C.ar    1  UNL1        0.0537
     12 C           6.0642   41.6664    8.2556 C.ar    1  UNL1        0.0045
     13 C           5.8814   42.9915    8.6617 C.ar    1  UNL1        0.0001
     14 C           6.2712   44.0392    7.8235 C.ar    1  UNL1        0.0000
     15 C           6.8472   43.7619    6.5812 C.ar    1  UNL1        0.0001
     16 C           7.0299   42.4368    6.1763 C.ar    1  UNL1        0.0045
     17 C          14.2938   41.3812    7.7821 C.2     1  UNL1        0.2518
     18 O          14.1794   40.4717    8.6483 O.2     1  UNL1       -0.2697
     19 N          13.2824   41.5423    6.7784 N.am    1  UNL1       -0.2779
     20 H          13.5081   42.0940    5.9949 H       1  UNL1        0.1553
     21 C          15.4904   42.2515    7.7632 C.ar    1  UNL1        0.0811
     22 C          15.6068   43.3475    6.8809 C.ar    1  UNL1        0.1445
     23 C          16.7580   44.1418    6.8973 C.ar    1  UNL1        0.0298
     24 C          17.7987   43.8575    7.7835 C.ar    1  UNL1        0.0023
     25 C          17.6928   42.7754    8.6585 C.ar    1  UNL1        0.0003
     26 C          16.5458   41.9783    8.6472 C.ar    1  UNL1        0.0068
     27 F          14.6193   43.6553    6.0035 F       1  UNL1       -0.2040
     28 C          11.0384   43.1328    9.3640 C.3     1  UNL1        0.2525
     29 O          11.5475   41.8431    9.0520 O.3     1  UNL1       -0.4701
     30 C           9.7944   39.5311    3.2238 C.3     1  UNL1        0.2525
     31 O           9.8015   38.9906    4.5381 O.3     1  UNL1       -0.4701
@<TRIPOS>BOND
     1    28    29    1
     2     1    29    1
     3     2     3   ar
     4     3     9    1
     5     7    11    1
     6    12    13   ar
     7    14    15   ar
     8    16    11   ar
     9     4    31    1
    10     4     5   ar
    11    30    31    1
    12     6    19    1
    13     6     1   ar
    14    17    21    1
    15    22    27    1
    16    22    23   ar
    17    24    25   ar
    18    26    21   ar
    19     9     7   am
    20    19    17   am
    21     1     2   ar
    22     3     4   ar
    23     7     8    2
    24    11    12   ar
    25    13    14   ar
    26    15    16   ar
    27     5     6   ar
    28    17    18    2
    29    21    22   ar
    30    23    24   ar
    31    25    26   ar
    32     9    10    1
    33    19    20    1
@<TRIPOS>MOLECULE
MolPort-001-550-202 1139843 CSC046137627 CSSS00046137627 LN01004191 MCULE-2079171214 PubChem-1312780 ZINC000001139843 ZINC01139843
 31 33 0 0 0
SMALL
GASTEIGER

@<TRIPOS>ATOM
      1 C          11.2368   40.5285    8.7389 C.ar    1  UNL1        0.1535
      2 C          10.0166   39.9111    8.4241 C.ar    1  UNL1        0.0559
      3 C           9.5227   39.9073    7.1176 C.ar    1  UNL1        0.0881
      4 C          10.2763   40.5061    6.0880 C.ar    1  UNL1        0.1535
      5 C          11.4966   41.1227    6.4029 C.ar    1  UNL1        0.0559
      6 C          11.9918   41.1241    7.7089 C.ar    1  UNL1        0.0881
      7 C           7.0283   39.8816    6.5382 C.2     1  UNL1        0.2496
      8 O           6.2202   39.2673    5.7919 O.2     1  UNL1       -0.2698
      9 N           8.2734   39.2488    6.8664 N.am    1  UNL1       -0.2779
     10 H           8.2700   38.2660    6.9251 H       1  UNL1        0.1553
     11 C           6.6428   41.1973    7.0953 C.ar    1  UNL1        0.0537
     12 C           6.0381   41.2725    8.3592 C.ar    1  UNL1        0.0045
     13 C           5.6820   42.5104    8.9021 C.ar    1  UNL1        0.0001
     14 C           5.9335   43.6849    8.1881 C.ar    1  UNL1        0.0000
     15 C           6.5445   43.6216    6.9333 C.ar    1  UNL1        0.0001
     16 C           6.9006   42.3835    6.3915 C.ar    1  UNL1        0.0045
     17 C          14.0814   42.3773    6.9626 C.2     1  UNL1        0.2518
     18 O          13.6259   42.6010    5.8081 O.2     1  UNL1       -0.2697
     19 N          13.2385   41.7850    7.9601 N.am    1  UNL1       -0.2779
     20 H          13.5414   41.8367    8.8954 H       1  UNL1        0.1553
     21 C          15.4655   42.7686    7.3107 C.ar    1  UNL1        0.0811
     22 C          16.2305   42.0551    8.2588 C.ar    1  UNL1        0.1445
     23 C          17.5347   42.4631    8.5576 C.ar    1  UNL1        0.0298
     24 C          18.0884   43.5765    7.9229 C.ar    1  UNL1        0.0023
     25 C          17.3390   44.2885    6.9852 C.ar    1  UNL1        0.0003
     26 C          16.0361   43.8863    6.6822 C.ar    1  UNL1        0.0068
     27 F          15.7281   40.9699    8.8987 F       1  UNL1       -0.2040
     28 C          12.8094   39.8498   10.5298 C.3     1  UNL1        0.2525
     29 O          11.6866   40.5854   10.0630 O.3     1  UNL1       -0.4701
     30 C          10.2174   39.4546    3.8450 C.3     1  UNL1        0.2525
     31 O           9.8194   40.4610    4.7659 O.3     1  UNL1       -0.4701
@<TRIPOS>BOND
     1    28    29    1
     2     1    29    1
     3     2     3   ar
     4     3     9    1
     5     7    11    1
     6    12    13   ar
     7    14    15   ar
     8    16    11   ar
     9     4    31    1
    10     4     5   ar
    11    30    31    1
    12     6    19    1
    13     6     1   ar
    14    17    21    1
    15    22    27    1
    16    22    23   ar
    17    24    25   ar
    18    26    21   ar
    19     9     7   am
    20    19    17   am
    21     1     2   ar
    22     3     4   ar
    23     7     8    2
    24    11    12   ar
    25    13    14   ar
    26    15    16   ar
    27     5     6   ar
    28    17    18    2
    29    21    22   ar
    30    23    24   ar
    31    25    26   ar
    32     9    10    1
    33    19    20    1
@<TRIPOS>MOLECULE
MolPort-001-550-202 1139843 CSC046137627 CSSS00046137627 LN01004191 MCULE-2079171214 PubChem-1312780 ZINC000001139843 ZINC01139843
 31 33 0 0 0
SMALL
GASTEIGER

@<TRIPOS>ATOM
      1 C          11.4717   40.5218    7.7032 C.ar    1  UNL1        0.1535
      2 C          12.8738   40.4691    7.6850 C.ar    1  UNL1        0.0559
      3 C          13.6081   40.3129    8.8629 C.ar    1  UNL1        0.0881
      4 C          12.9304   40.1736   10.0908 C.ar    1  UNL1        0.1535
      5 C          11.5286   40.2257   10.1087 C.ar    1  UNL1        0.0559
      6 C          10.7942   40.3791    8.9305 C.ar    1  UNL1        0.0881
      7 C          15.9161   41.3560    8.4837 C.2     1  UNL1        0.2496
      8 O          17.0691   41.3513    8.9913 O.2     1  UNL1       -0.2698
      9 N          15.0383   40.2574    8.7685 N.am    1  UNL1       -0.2779
     10 H          15.4589   39.3791    8.9134 H       1  UNL1        0.1553
     11 C          15.5316   42.4545    7.5698 C.ar    1  UNL1        0.0537
     12 C          16.3307   43.6045    7.4821 C.ar    1  UNL1        0.0045
     13 C          15.9855   44.6430    6.6123 C.ar    1  UNL1        0.0001
     14 C          14.8411   44.5375    5.8176 C.ar    1  UNL1        0.0000
     15 C          14.0443   43.3922    5.8898 C.ar    1  UNL1        0.0001
     16 C          14.3905   42.3542    6.7594 C.ar    1  UNL1        0.0045
     17 C           8.6008   41.6070    9.3493 C.2     1  UNL1        0.2518
     18 O           9.1408   42.7454    9.2939 O.2     1  UNL1       -0.2697
     19 N           9.3653   40.4378    9.0255 N.am    1  UNL1       -0.2779
     20 H           8.8672   39.6061    8.8541 H       1  UNL1        0.1553
     21 C           7.1687   41.4733    9.6970 C.ar    1  UNL1        0.0811
     22 C           6.7146   41.5132   11.0332 C.ar    1  UNL1        0.1445
     23 C           5.3509   41.3806   11.3146 C.ar    1  UNL1        0.0298
     24 C           4.4305   41.2075   10.2791 C.ar    1  UNL1        0.0023
     25 C           4.8705   41.1658    8.9554 C.ar    1  UNL1        0.0003
     26 C           6.2310   41.2976    8.6676 C.ar    1  UNL1        0.0068
     27 F           7.5769   41.6773   12.0672 F       1  UNL1       -0.2040
     28 C          10.8261   39.8874    5.3963 C.3     1  UNL1        0.2525
     29 O          10.7511   40.7479    6.5249 O.3     1  UNL1       -0.4701
     30 C          13.9938   38.6659   11.7451 C.3     1  UNL1        0.2525
     31 O          13.6521   39.9613   11.2710 O.3     1  UNL1       -0.4701
@<TRIPOS>BOND
     1    28    29    1
     2     1    29    1
     3     2     3   ar
     4     3     9    1
     5     7    11    1
     6    12    13   ar
     7    14    15   ar
     8    16    11   ar
     9     4    31    1
    10     4     5   ar
    11    30    31    1
    12     6    19    1
    13     6     1   ar
    14    17    21    1
    15    22    27    1
    16    22    23   ar
    17    24    25   ar
    18    26    21   ar
    19     9     7   am
    20    19    17   am
    21     1     2   ar
    22     3     4   ar
    23     7     8    2
    24    11    12   ar
    25    13    14   ar
    26    15    16   ar
    27     5     6   ar
    28    17    18    2
    29    21    22   ar
    30    23    24   ar
    31    25    26   ar
    32     9    10    1
    33    19    20    1
