@<TRIPOS>MOLECULE
MolPort-002-865-760 5681538 CHEMBL4583059 CSSS00138423840 MCULE-3822519898 PubChem-4417892 ZINC000005681538 ZINC05681538
 23 25 0 0 0
SMALL
GASTEIGER

@<TRIPOS>ATOM
      1 O           3.4894   43.3298    8.7924 O.2     1  UNL1       -0.2434
      2 O           6.0111   42.3187    8.4284 O.2     1  UNL1       -0.2654
      3 C           2.7155   41.9224   11.8203 C.ar    1  UNL1        0.1866
      4 C           3.5436   42.7206    9.8937 C.ar    1  UNL1        0.3638
      5 C           5.9636   42.0839    9.6661 C.2     1  UNL1        0.2799
      6 N           2.4378   42.6135   10.6923 N.ar    1  UNL1       -0.1687
      7 N           4.6960   42.1451   10.3497 N.ar    1  UNL1       -0.1915
      8 S           4.3103   41.4538   11.8146 S.2     1  UNL1        0.0367
      9 C           7.2223   41.7560   10.3652 C.ar    1  UNL1        0.0866
     10 C           7.3994   41.5779   11.7297 C.ar    1  UNL1        0.0118
     11 C           8.7302   41.3114   12.0828 C.ar    1  UNL1        0.0076
     12 C           9.6166   41.2847   11.0093 C.ar    1  UNL1        0.0356
     13 S           8.7190   41.5976    9.6228 S.2     1  UNL1       -0.0817
     14 O           0.7216   43.7188   12.8921 O.2     1  UNL1       -0.2698
     15 C           0.8006   42.5514   13.3639 C.2     1  UNL1        0.2509
     16 N           1.7766   41.6309   12.8591 N.am    1  UNL1       -0.2594
     17 H           1.8026   40.7308   13.2572 H       1  UNL1        0.1571
     18 C          -0.1151   42.1321   14.4396 C.ar    1  UNL1        0.0537
     19 C          -0.0539   42.7404   15.7024 C.ar    1  UNL1        0.0045
     20 C          -0.9231   42.3417   16.7221 C.ar    1  UNL1        0.0001
     21 C          -1.8600   41.3318   16.4868 C.ar    1  UNL1        0.0000
     22 C          -1.9278   40.7206   15.2321 C.ar    1  UNL1        0.0001
     23 C          -1.0586   41.1192   14.2123 C.ar    1  UNL1        0.0045
@<TRIPOS>BOND
     1    15    16   am
     2    15    18    1
     3     3     8   ar
     4     4     6   ar
     5     4     7   ar
     6     5     9    1
     7     9    13   ar
     8    10    11   ar
     9    12    13   ar
    10    19    20   ar
    11    21    22   ar
    12    23    18   ar
    13    16     3    1
    14     7     8   ar
    15     7     5   am
    16    15    14    2
    17     3     6   ar
    18     4     1    2
    19     5     2    2
    20     9    10   ar
    21    11    12   ar
    22    18    19   ar
    23    20    21   ar
    24    22    23   ar
    25    16    17    1
@<TRIPOS>MOLECULE
MolPort-002-865-760 5681538 CHEMBL4583059 CSSS00138423840 MCULE-3822519898 PubChem-4417892 ZINC000005681538 ZINC05681538
 23 25 0 0 0
SMALL
GASTEIGER

@<TRIPOS>ATOM
      1 O           6.4525   40.4215   11.9016 O.2     1  UNL1       -0.2434
      2 O           7.7096   42.0469   10.0874 O.2     1  UNL1       -0.2654
      3 C           3.3015   41.7680   11.8233 C.ar    1  UNL1        0.1866
      4 C           5.4306   41.0951   11.6030 C.ar    1  UNL1        0.3638
      5 C           6.5390   42.3425    9.7245 C.2     1  UNL1        0.2799
      6 N           4.2660   40.9538   12.3071 N.ar    1  UNL1       -0.1687
      7 N           5.4259   41.9885   10.5691 N.ar    1  UNL1       -0.1915
      8 S           3.8967   42.6469   10.5441 S.2     1  UNL1        0.0367
      9 C           6.3611   43.0429    8.4366 C.ar    1  UNL1        0.0866
     10 C           7.0956   42.8563    7.2745 C.ar    1  UNL1        0.0118
     11 C           6.7024   43.7069    6.2312 C.ar    1  UNL1        0.0076
     12 C           5.6648   44.5764    6.5571 C.ar    1  UNL1        0.0356
     13 S           5.2500   44.2690    8.1569 S.2     1  UNL1       -0.0817
     14 O           2.5420   42.6381   14.4724 O.2     1  UNL1       -0.2698
     15 C           1.6349   42.3026   13.6624 C.2     1  UNL1        0.2509
     16 N           1.9710   41.8650   12.3393 N.am    1  UNL1       -0.2594
     17 H           1.2309   41.6124   11.7412 H       1  UNL1        0.1571
     18 C           0.2225   42.3608   14.0784 C.ar    1  UNL1        0.0537
     19 C          -0.6129   43.3886   13.6155 C.ar    1  UNL1        0.0045
     20 C          -1.9527   43.4429   14.0109 C.ar    1  UNL1        0.0001
     21 C          -2.4672   42.4699   14.8720 C.ar    1  UNL1        0.0000
     22 C          -1.6422   41.4427   15.3378 C.ar    1  UNL1        0.0001
     23 C          -0.3024   41.3884   14.9426 C.ar    1  UNL1        0.0045
@<TRIPOS>BOND
     1    15    16   am
     2    15    18    1
     3     3     8   ar
     4     4     6   ar
     5     4     7   ar
     6     5     9    1
     7     9    13   ar
     8    10    11   ar
     9    12    13   ar
    10    19    20   ar
    11    21    22   ar
    12    23    18   ar
    13    16     3    1
    14     7     8   ar
    15     7     5   am
    16    15    14    2
    17     3     6   ar
    18     4     1    2
    19     5     2    2
    20     9    10   ar
    21    11    12   ar
    22    18    19   ar
    23    20    21   ar
    24    22    23   ar
    25    16    17    1
@<TRIPOS>MOLECULE
MolPort-002-865-760 5681538 CHEMBL4583059 CSSS00138423840 MCULE-3822519898 PubChem-4417892 ZINC000005681538 ZINC05681538
 23 25 0 0 0
SMALL
GASTEIGER

@<TRIPOS>ATOM
      1 O          11.9784   42.8492    9.1242 O.2     1  UNL1       -0.2434
      2 O           9.2576   42.6268    8.8766 O.2     1  UNL1       -0.2654
      3 C          12.9007   39.6106    8.4851 C.ar    1  UNL1        0.1866
      4 C          11.9778   41.6307    8.8046 C.ar    1  UNL1        0.3638
      5 C           9.5225   41.5500    8.2767 C.2     1  UNL1        0.2799
      6 N          13.1247   40.8874    8.8683 N.ar    1  UNL1       -0.1687
      7 N          10.8480   40.9924    8.3762 N.ar    1  UNL1       -0.1915
      8 S          11.3004   39.4178    8.0788 S.2     1  UNL1        0.0367
      9 C           8.4519   40.9049    7.4904 C.ar    1  UNL1        0.0866
     10 C           7.2694   41.4845    7.0540 C.ar    1  UNL1        0.0118
     11 C           6.4408   40.5911    6.3598 C.ar    1  UNL1        0.0076
     12 C           6.9515   39.3006    6.2476 C.ar    1  UNL1        0.0356
     13 S           8.4426   39.2928    7.0240 S.2     1  UNL1       -0.0817
     14 O          12.6403   36.9336    9.5421 O.2     1  UNL1       -0.2698
     15 C          13.7215   37.2597    8.9798 C.2     1  UNL1        0.2509
     16 N          13.8897   38.5782    8.4431 N.am    1  UNL1       -0.2594
     17 H          14.7502   38.7889    8.0136 H       1  UNL1        0.1571
     18 C          14.8173   36.2801    8.8743 C.ar    1  UNL1        0.0537
     19 C          14.5370   34.9108    8.7517 C.ar    1  UNL1        0.0045
     20 C          15.5774   33.9823    8.6517 C.ar    1  UNL1        0.0001
     21 C          16.9056   34.4161    8.6735 C.ar    1  UNL1        0.0000
     22 C          17.1938   35.7780    8.7953 C.ar    1  UNL1        0.0001
     23 C          16.1535   36.7065    8.8954 C.ar    1  UNL1        0.0045
@<TRIPOS>BOND
     1    15    16   am
     2    15    18    1
     3     3     8   ar
     4     4     6   ar
     5     4     7   ar
     6     5     9    1
     7     9    13   ar
     8    10    11   ar
     9    12    13   ar
    10    19    20   ar
    11    21    22   ar
    12    23    18   ar
    13    16     3    1
    14     7     8   ar
    15     7     5   am
    16    15    14    2
    17     3     6   ar
    18     4     1    2
    19     5     2    2
    20     9    10   ar
    21    11    12   ar
    22    18    19   ar
    23    20    21   ar
    24    22    23   ar
    25    16    17    1
@<TRIPOS>MOLECULE
MolPort-002-865-760 5681538 CHEMBL4583059 CSSS00138423840 MCULE-3822519898 PubChem-4417892 ZINC000005681538 ZINC05681538
 23 25 0 0 0
SMALL
GASTEIGER

@<TRIPOS>ATOM
      1 O           9.4250   40.2620    4.4453 O.2     1  UNL1       -0.2434
      2 O           7.1033   41.3646    5.3979 O.2     1  UNL1       -0.2654
      3 C          11.6498   41.4723    6.7546 C.ar    1  UNL1        0.1866
      4 C           9.9468   40.8090    5.4530 C.ar    1  UNL1        0.3638
      5 C           7.7603   41.5273    6.4615 C.2     1  UNL1        0.2799
      6 N          11.3055   40.8385    5.6114 N.ar    1  UNL1       -0.1687
      7 N           9.1951   41.3908    6.4346 N.ar    1  UNL1       -0.1915
      8 S          10.2819   41.9865    7.5467 S.2     1  UNL1        0.0367
      9 C           7.0214   41.8514    7.6983 C.ar    1  UNL1        0.0866
     10 C           6.8865   41.0537    8.8254 C.ar    1  UNL1        0.0118
     11 C           6.0870   41.6354    9.8200 C.ar    1  UNL1        0.0076
     12 C           5.5765   42.8879    9.4892 C.ar    1  UNL1        0.0356
     13 S           6.1346   43.2543    7.9463 S.2     1  UNL1       -0.0817
     14 O          13.4941   43.4938    5.8252 O.2     1  UNL1       -0.2698
     15 C          13.8751   42.6940    6.7233 C.2     1  UNL1        0.2509
     16 N          12.9899   41.6772    7.2106 N.am    1  UNL1       -0.2594
     17 H          13.3297   41.0750    7.9114 H       1  UNL1        0.1571
     18 C          15.2372   42.8056    7.2744 C.ar    1  UNL1        0.0537
     19 C          16.0587   43.8880    6.9249 C.ar    1  UNL1        0.0045
     20 C          17.3508   43.9928    7.4482 C.ar    1  UNL1        0.0001
     21 C          17.8311   43.0162    8.3248 C.ar    1  UNL1        0.0000
     22 C          17.0197   41.9348    8.6781 C.ar    1  UNL1        0.0001
     23 C          15.7276   41.8298    8.1547 C.ar    1  UNL1        0.0045
@<TRIPOS>BOND
     1    15    16   am
     2    15    18    1
     3     3     8   ar
     4     4     6   ar
     5     4     7   ar
     6     5     9    1
     7     9    13   ar
     8    10    11   ar
     9    12    13   ar
    10    19    20   ar
    11    21    22   ar
    12    23    18   ar
    13    16     3    1
    14     7     8   ar
    15     7     5   am
    16    15    14    2
    17     3     6   ar
    18     4     1    2
    19     5     2    2
    20     9    10   ar
    21    11    12   ar
    22    18    19   ar
    23    20    21   ar
    24    22    23   ar
    25    16    17    1
@<TRIPOS>MOLECULE
MolPort-002-865-760 5681538 CHEMBL4583059 CSSS00138423840 MCULE-3822519898 PubChem-4417892 ZINC000005681538 ZINC05681538
 23 25 0 0 0
SMALL
GASTEIGER

@<TRIPOS>ATOM
      1 O           9.3871   40.2544    4.2930 O.2     1  UNL1       -0.2434
      2 O           7.0871   41.0854    5.5312 O.2     1  UNL1       -0.2654
      3 C          11.7124   41.3489    6.5609 C.ar    1  UNL1        0.1866
      4 C           9.9538   40.7205    5.3171 C.ar    1  UNL1        0.3638
      5 C           7.8155   41.1733    6.5565 C.2     1  UNL1        0.2799
      6 N          11.3167   40.8239    5.3798 N.ar    1  UNL1       -0.1687
      7 N           9.2491   41.1378    6.4109 N.ar    1  UNL1       -0.1915
      8 S          10.3835   41.6786    7.5033 S.2     1  UNL1        0.0367
      9 C           7.1589   41.3076    7.8723 C.ar    1  UNL1        0.0866
     10 C           5.8300   41.0478    8.1745 C.ar    1  UNL1        0.0118
     11 C           5.5074   41.3109    9.5136 C.ar    1  UNL1        0.0076
     12 C           6.5687   41.7873   10.2788 C.ar    1  UNL1        0.0356
     13 S           7.9060   41.8748    9.2639 S.2     1  UNL1       -0.0817
     14 O          13.2775   43.6986    5.9436 O.2     1  UNL1       -0.2698
     15 C          13.8131   42.7736    6.6137 C.2     1  UNL1        0.2509
     16 N          13.0700   41.5919    6.9400 N.am    1  UNL1       -0.2594
     17 H          13.5282   40.8958    7.4641 H       1  UNL1        0.1571
     18 C          15.2099   42.9085    7.0633 C.ar    1  UNL1        0.0537
     19 C          15.7326   42.0362    8.0300 C.ar    1  UNL1        0.0045
     20 C          17.0579   42.1651    8.4559 C.ar    1  UNL1        0.0001
     21 C          17.8703   43.1671    7.9184 C.ar    1  UNL1        0.0000
     22 C          17.3578   44.0402    6.9553 C.ar    1  UNL1        0.0001
     23 C          16.0325   43.9114    6.5294 C.ar    1  UNL1        0.0045
@<TRIPOS>BOND
     1    15    16   am
     2    15    18    1
     3     3     8   ar
     4     4     6   ar
     5     4     7   ar
     6     5     9    1
     7     9    13   ar
     8    10    11   ar
     9    12    13   ar
    10    19    20   ar
    11    21    22   ar
    12    23    18   ar
    13    16     3    1
    14     7     8   ar
    15     7     5   am
    16    15    14    2
    17     3     6   ar
    18     4     1    2
    19     5     2    2
    20     9    10   ar
    21    11    12   ar
    22    18    19   ar
    23    20    21   ar
    24    22    23   ar
    25    16    17    1
@<TRIPOS>MOLECULE
MolPort-002-865-760 5681538 CHEMBL4583059 CSSS00138423840 MCULE-3822519898 PubChem-4417892 ZINC000005681538 ZINC05681538
 23 25 0 0 0
SMALL
GASTEIGER

@<TRIPOS>ATOM
      1 O          12.6331   42.9268    7.5630 O.2     1  UNL1       -0.2434
      2 O          14.7185   41.2624    8.1913 O.2     1  UNL1       -0.2654
      3 C          10.0322   41.1654    8.9343 C.ar    1  UNL1        0.1866
      4 C          11.9405   42.0869    8.1970 C.ar    1  UNL1        0.3638
      5 C          13.9115   40.7649    9.0223 C.2     1  UNL1        0.2799
      6 N          10.5743   42.1600    8.1967 N.ar    1  UNL1       -0.1687
      7 N          12.5073   41.0725    8.9160 N.ar    1  UNL1       -0.1915
      8 S          11.2387   40.2145    9.5695 S.2     1  UNL1        0.0367
      9 C          14.4486   39.8829   10.0778 C.ar    1  UNL1        0.0866
     10 C          13.7967   39.4619   11.2279 C.ar    1  UNL1        0.0118
     11 C          14.5965   38.6564   12.0515 C.ar    1  UNL1        0.0076
     12 C          15.8846   38.4397   11.5693 C.ar    1  UNL1        0.0356
     13 S          16.0084   39.2645   10.1097 S.2     1  UNL1       -0.0817
     14 O           8.2745   42.7479   10.5949 O.2     1  UNL1       -0.2698
     15 C           7.7918   41.7666    9.9660 C.2     1  UNL1        0.2509
     16 N           8.6311   40.9571    9.1322 N.am    1  UNL1       -0.2594
     17 H           8.2118   40.2014    8.6607 H       1  UNL1        0.1571
     18 C           6.3577   41.4509   10.0891 C.ar    1  UNL1        0.0537
     19 C           5.8016   41.1484   11.3412 C.ar    1  UNL1        0.0045
     20 C           4.4410   40.8489   11.4569 C.ar    1  UNL1        0.0001
     21 C           3.6263   40.8497   10.3214 C.ar    1  UNL1        0.0000
     22 C           4.1719   41.1498    9.0705 C.ar    1  UNL1        0.0001
     23 C           5.5326   41.4492    8.9547 C.ar    1  UNL1        0.0045
@<TRIPOS>BOND
     1    15    16   am
     2    15    18    1
     3     3     8   ar
     4     4     6   ar
     5     4     7   ar
     6     5     9    1
     7     9    13   ar
     8    10    11   ar
     9    12    13   ar
    10    19    20   ar
    11    21    22   ar
    12    23    18   ar
    13    16     3    1
    14     7     8   ar
    15     7     5   am
    16    15    14    2
    17     3     6   ar
    18     4     1    2
    19     5     2    2
    20     9    10   ar
    21    11    12   ar
    22    18    19   ar
    23    20    21   ar
    24    22    23   ar
    25    16    17    1
@<TRIPOS>MOLECULE
MolPort-002-865-760 5681538 CHEMBL4583059 CSSS00138423840 MCULE-3822519898 PubChem-4417892 ZINC000005681538 ZINC05681538
 23 25 0 0 0
SMALL
GASTEIGER

@<TRIPOS>ATOM
      1 O           6.0331   39.8246    6.2668 O.2     1  UNL1       -0.2434
      2 O           4.0049   41.0052    7.6832 O.2     1  UNL1       -0.2654
      3 C           8.6925   40.5820    8.2921 C.ar    1  UNL1        0.1866
      4 C           6.7539   40.2114    7.2249 C.ar    1  UNL1        0.3638
      5 C           4.8287   40.9939    8.6374 C.2     1  UNL1        0.2799
      6 N           8.1169   40.1095    7.1640 N.ar    1  UNL1       -0.1687
      7 N           6.2219   40.7419    8.3663 N.ar    1  UNL1       -0.1915
      8 S           7.5189   41.1180    9.3403 S.2     1  UNL1        0.0367
      9 C           4.3223   41.2399   10.0026 C.ar    1  UNL1        0.0866
     10 C           4.1887   40.3117   11.0250 C.ar    1  UNL1        0.0118
     11 C           3.6391   40.8556   12.1950 C.ar    1  UNL1        0.0076
     12 C           3.3257   42.2095   12.1087 C.ar    1  UNL1        0.0356
     13 S           3.7418   42.7127   10.5596 S.2     1  UNL1       -0.0817
     14 O          10.5002   38.3276    8.3272 O.2     1  UNL1       -0.2698
     15 C          10.9643   39.4790    8.5516 C.2     1  UNL1        0.2509
     16 N          10.0999   40.6226    8.5433 N.am    1  UNL1       -0.2594
     17 H          10.5053   41.5013    8.7241 H       1  UNL1        0.1571
     18 C          12.4025   39.6493    8.8237 C.ar    1  UNL1        0.0537
     19 C          13.0022   40.9128    8.7117 C.ar    1  UNL1        0.0045
     20 C          14.3667   41.0733    8.9700 C.ar    1  UNL1        0.0001
     21 C          15.1417   39.9716    9.3422 C.ar    1  UNL1        0.0000
     22 C          14.5526   38.7096    9.4560 C.ar    1  UNL1        0.0001
     23 C          13.1881   38.5491    9.1977 C.ar    1  UNL1        0.0045
@<TRIPOS>BOND
     1    15    16   am
     2    15    18    1
     3     3     8   ar
     4     4     6   ar
     5     4     7   ar
     6     5     9    1
     7     9    13   ar
     8    10    11   ar
     9    12    13   ar
    10    19    20   ar
    11    21    22   ar
    12    23    18   ar
    13    16     3    1
    14     7     8   ar
    15     7     5   am
    16    15    14    2
    17     3     6   ar
    18     4     1    2
    19     5     2    2
    20     9    10   ar
    21    11    12   ar
    22    18    19   ar
    23    20    21   ar
    24    22    23   ar
    25    16    17    1
@<TRIPOS>MOLECULE
MolPort-002-865-760 5681538 CHEMBL4583059 CSSS00138423840 MCULE-3822519898 PubChem-4417892 ZINC000005681538 ZINC05681538
 23 25 0 0 0
SMALL
GASTEIGER

@<TRIPOS>ATOM
      1 O           8.4204   39.0060    4.6917 O.2     1  UNL1       -0.2434
      2 O           6.1259   39.6989    6.0216 O.2     1  UNL1       -0.2654
      3 C          10.5292   41.4584    5.8261 C.ar    1  UNL1        0.1866
      4 C           8.9245   39.9734    5.3219 C.ar    1  UNL1        0.3638
      5 C           6.8992   40.3729    6.7545 C.2     1  UNL1        0.2799
      6 N          10.1877   40.4152    5.0372 N.ar    1  UNL1       -0.1687
      7 N           8.2493   40.6235    6.3162 N.ar    1  UNL1       -0.1915
      8 S           9.2744   41.8202    6.8545 S.2     1  UNL1        0.0367
      9 C           6.3808   40.8773    8.0419 C.ar    1  UNL1        0.0866
     10 C           5.0535   41.0971    8.3808 C.ar    1  UNL1        0.0118
     11 C           4.8935   41.6186    9.6728 C.ar    1  UNL1        0.0076
     12 C           6.0854   41.8242   10.3626 C.ar    1  UNL1        0.0356
     13 S           7.3329   41.3487    9.3410 S.2     1  UNL1       -0.0817
     14 O          12.5659   41.4801    7.8761 O.2     1  UNL1       -0.2698
     15 C          12.7652   42.1376    6.8181 C.2     1  UNL1        0.2509
     16 N          11.7789   42.1523    5.7779 N.am    1  UNL1       -0.2594
     17 H          11.9765   42.6792    4.9701 H       1  UNL1        0.1571
     18 C          14.0183   42.8946    6.6506 C.ar    1  UNL1        0.0537
     19 C          14.0575   44.0314    5.8292 C.ar    1  UNL1        0.0045
     20 C          15.2469   44.7488    5.6710 C.ar    1  UNL1        0.0001
     21 C          16.4060   44.3349    6.3328 C.ar    1  UNL1        0.0000
     22 C          16.3759   43.2037    7.1528 C.ar    1  UNL1        0.0001
     23 C          15.1866   42.4862    7.3110 C.ar    1  UNL1        0.0045
@<TRIPOS>BOND
     1    15    16   am
     2    15    18    1
     3     3     8   ar
     4     4     6   ar
     5     4     7   ar
     6     5     9    1
     7     9    13   ar
     8    10    11   ar
     9    12    13   ar
    10    19    20   ar
    11    21    22   ar
    12    23    18   ar
    13    16     3    1
    14     7     8   ar
    15     7     5   am
    16    15    14    2
    17     3     6   ar
    18     4     1    2
    19     5     2    2
    20     9    10   ar
    21    11    12   ar
    22    18    19   ar
    23    20    21   ar
    24    22    23   ar
    25    16    17    1
@<TRIPOS>MOLECULE
MolPort-002-865-760 5681538 CHEMBL4583059 CSSS00138423840 MCULE-3822519898 PubChem-4417892 ZINC000005681538 ZINC05681538
 23 25 0 0 0
SMALL
GASTEIGER

@<TRIPOS>ATOM
      1 O           7.5356   43.7607    6.8038 O.2     1  UNL1       -0.2434
      2 O           5.3576   44.2848    8.3834 O.2     1  UNL1       -0.2654
      3 C           9.0742   41.3498    8.6927 C.ar    1  UNL1        0.1866
      4 C           7.8019   42.8961    7.6805 C.ar    1  UNL1        0.3638
      5 C           5.6380   43.1816    8.9254 C.2     1  UNL1        0.2799
      6 N           8.9949   42.2263    7.6668 N.ar    1  UNL1       -0.1687
      7 N           6.9235   42.5783    8.6778 N.ar    1  UNL1       -0.1915
      8 S           7.6815   41.4157    9.5978 S.2     1  UNL1        0.0367
      9 C           4.6250   42.5516    9.7958 C.ar    1  UNL1        0.0866
     10 C           3.2628   42.4473    9.5542 C.ar    1  UNL1        0.0118
     11 C           2.5638   41.8240   10.5980 C.ar    1  UNL1        0.0076
     12 C           3.3590   41.4386   11.6741 C.ar    1  UNL1        0.0356
     13 S           4.9368   41.8859   11.3045 S.2     1  UNL1       -0.0817
     14 O           9.4820   38.6711    7.6877 O.2     1  UNL1       -0.2698
     15 C          10.3575   39.1733    8.4446 C.2     1  UNL1        0.2509
     16 N          10.1915   40.4991    8.9639 N.am    1  UNL1       -0.2594
     17 H          10.8995   40.8503    9.5511 H       1  UNL1        0.1571
     18 C          11.5569   38.3930    8.7968 C.ar    1  UNL1        0.0537
     19 C          11.4463   37.2356    9.5821 C.ar    1  UNL1        0.0045
     20 C          12.5848   36.4961    9.9157 C.ar    1  UNL1        0.0001
     21 C          13.8423   36.9083    9.4666 C.ar    1  UNL1        0.0000
     22 C          13.9615   38.0599    8.6840 C.ar    1  UNL1        0.0001
     23 C          12.8231   38.7995    8.3505 C.ar    1  UNL1        0.0045
@<TRIPOS>BOND
     1    15    16   am
     2    15    18    1
     3     3     8   ar
     4     4     6   ar
     5     4     7   ar
     6     5     9    1
     7     9    13   ar
     8    10    11   ar
     9    12    13   ar
    10    19    20   ar
    11    21    22   ar
    12    23    18   ar
    13    16     3    1
    14     7     8   ar
    15     7     5   am
    16    15    14    2
    17     3     6   ar
    18     4     1    2
    19     5     2    2
    20     9    10   ar
    21    11    12   ar
    22    18    19   ar
    23    20    21   ar
    24    22    23   ar
    25    16    17    1
@<TRIPOS>MOLECULE
MolPort-002-865-760 5681538 CHEMBL4583059 CSSS00138423840 MCULE-3822519898 PubChem-4417892 ZINC000005681538 ZINC05681538
 23 25 0 0 0
SMALL
GASTEIGER

@<TRIPOS>ATOM
      1 O          10.9125   37.2635   10.1982 O.2     1  UNL1       -0.2434
      2 O          12.5182   35.0963   10.6868 O.2     1  UNL1       -0.2654
      3 C          13.0814   39.2181    8.4028 C.ar    1  UNL1        0.1866
      4 C          11.9049   37.6903    9.5501 C.ar    1  UNL1        0.3638
      5 C          13.2214   35.5593    9.7485 C.2     1  UNL1        0.2799
      6 N          11.9281   38.9683    9.0620 N.ar    1  UNL1       -0.1687
      7 N          12.9972   36.9095    9.2962 N.ar    1  UNL1       -0.1915
      8 S          14.0510   37.8682    8.4343 S.2     1  UNL1        0.0367
      9 C          14.2511   34.6869    9.1490 C.ar    1  UNL1        0.0866
     10 C          14.1291   33.3402    8.8387 C.ar    1  UNL1        0.0118
     11 C          15.3056   32.7868    8.3131 C.ar    1  UNL1        0.0076
     12 C          16.3674   33.6817    8.2107 C.ar    1  UNL1        0.0356
     13 S          15.8181   35.1637    8.7834 S.2     1  UNL1       -0.0817
     14 O          15.5049   40.7403    8.8038 O.2     1  UNL1       -0.2698
     15 C          14.6361   41.1852    8.0046 C.2     1  UNL1        0.2509
     16 N          13.4206   40.4596    7.7789 N.am    1  UNL1       -0.2594
     17 H          12.7708   40.8445    7.1474 H       1  UNL1        0.1571
     18 C          14.8719   42.4575    7.2995 C.ar    1  UNL1        0.0537
     19 C          13.9200   42.9574    6.3981 C.ar    1  UNL1        0.0045
     20 C          14.1448   44.1644    5.7296 C.ar    1  UNL1        0.0001
     21 C          15.3230   44.8806    5.9574 C.ar    1  UNL1        0.0000
     22 C          16.2765   44.3899    6.8534 C.ar    1  UNL1        0.0001
     23 C          16.0518   43.1828    7.5219 C.ar    1  UNL1        0.0045
@<TRIPOS>BOND
     1    15    16   am
     2    15    18    1
     3     3     8   ar
     4     4     6   ar
     5     4     7   ar
     6     5     9    1
     7     9    13   ar
     8    10    11   ar
     9    12    13   ar
    10    19    20   ar
    11    21    22   ar
    12    23    18   ar
    13    16     3    1
    14     7     8   ar
    15     7     5   am
    16    15    14    2
    17     3     6   ar
    18     4     1    2
    19     5     2    2
    20     9    10   ar
    21    11    12   ar
    22    18    19   ar
    23    20    21   ar
    24    22    23   ar
    25    16    17    1
