@<TRIPOS>MOLECULE
MolPort-002-599-334 16975781 CHEMBL1547457 CSSS00160675839 MCULE-7236428736 PubChem-662537 ZINC000016975781 ZINC16975781
 26 29 0 0 0
SMALL
GASTEIGER

@<TRIPOS>ATOM
      1 C          11.8056   41.8855    7.9782 C.ar    1  UNL1        0.1571
      2 C          12.7262   41.1767    8.7344 C.ar    1  UNL1        0.0689
      3 C          12.6395   40.3778    9.8701 C.ar    1  UNL1        0.0074
      4 C          13.8434   39.8597   10.3780 C.ar    1  UNL1        0.0179
      5 C          13.8363   39.0380   11.5074 C.ar    1  UNL1        0.0015
      6 C          15.0384   38.5279   12.0071 C.ar    1  UNL1        0.0001
      7 C          16.2514   38.8371   11.3823 C.ar    1  UNL1        0.0015
      8 C          16.2742   39.6599   10.2517 C.ar    1  UNL1        0.0192
      9 C          15.0821   40.1767    9.7389 C.ar    1  UNL1        0.0829
     10 C          13.9297   41.4692    8.1623 C.ar    1  UNL1        0.1621
     11 N          13.7563   42.3161    7.1340 N.ar    1  UNL1       -0.2329
     12 N          12.4600   42.5820    7.0163 N.ar    1  UNL1       -0.1527
     13 N          15.1053   40.9878    8.6391 N.ar    1  UNL1       -0.2268
     14 C           9.7438   42.8771    9.1090 C.2     1  UNL1        0.2566
     15 N          10.3925   41.9912    8.1897 N.am    1  UNL1       -0.2640
     16 O          10.3950   43.4315   10.0342 O.2     1  UNL1       -0.2692
     17 H           9.8147   41.4009    7.6541 H       1  UNL1        0.1566
     18 C           8.2971   43.0974    9.0075 C.ar    1  UNL1        0.0831
     19 C           7.6851   44.2558    8.5549 C.ar    1  UNL1        0.0116
     20 C           6.2852   44.1728    8.5741 C.ar    1  UNL1        0.0076
     21 C           5.7858   42.9579    9.0387 C.ar    1  UNL1        0.0356
     22 S           7.1075   41.9914    9.4244 S.2     1  UNL1       -0.0819
     23 C          14.7829   42.8702    6.2643 C.3     1  UNL1        0.1292
     24 C          15.4821   44.0337    6.9496 C.3     1  UNL1        0.0264
     25 C          17.5011   43.8205    8.3959 C.3     1  UNL1        0.0001
     26 C          16.9836   43.8123    6.9697 C.3     1  UNL1        0.0021
@<TRIPOS>BOND
     1    25    26    1
     2    26    24    1
     3    24    23    1
     4    23    11    1
     5     1    15    1
     6     1     2   ar
     7    14    18    1
     8    18    22   ar
     9    19    20   ar
    10    21    22   ar
    11     3     4   ar
    12     5     6   ar
    13     7     8   ar
    14     9    13   ar
    15     9     4   ar
    16    10    11   ar
    17    10     2   ar
    18    11    12   ar
    19    15    14   am
    20     1    12   ar
    21    14    16    2
    22    18    19   ar
    23    20    21   ar
    24     2     3   ar
    25     4     5   ar
    26     6     7   ar
    27     8     9   ar
    28    10    13   ar
    29    15    17    1
@<TRIPOS>MOLECULE
MolPort-002-599-334 16975781 CHEMBL1547457 CSSS00160675839 MCULE-7236428736 PubChem-662537 ZINC000016975781 ZINC16975781
 26 29 0 0 0
SMALL
GASTEIGER

@<TRIPOS>ATOM
      1 C          12.3608   40.8412    7.2188 C.ar    1  UNL1        0.1571
      2 C          11.3345   41.2105    8.0744 C.ar    1  UNL1        0.0689
      3 C          11.2497   42.0437    9.1853 C.ar    1  UNL1        0.0074
      4 C          10.0029   42.1213    9.8298 C.ar    1  UNL1        0.0179
      5 C           9.8355   42.9468   10.9439 C.ar    1  UNL1        0.0015
      6 C           8.5924   43.0172   11.5801 C.ar    1  UNL1        0.0001
      7 C           7.5128   42.2631   11.1075 C.ar    1  UNL1        0.0015
      8 C           7.6660   41.4308    9.9941 C.ar    1  UNL1        0.0192
      9 C           8.9009   41.3500    9.3461 C.ar    1  UNL1        0.0829
     10 C          10.2635   40.4781    7.6529 C.ar    1  UNL1        0.1621
     11 N          10.6181   39.6987    6.6176 N.ar    1  UNL1       -0.2329
     12 N          11.9018   39.9089    6.3476 N.ar    1  UNL1       -0.1527
     13 N           9.0527   40.5299    8.2634 N.ar    1  UNL1       -0.2268
     14 C          14.2365   42.5266    6.8260 C.2     1  UNL1        0.2566
     15 N          13.7306   41.2592    7.2603 N.am    1  UNL1       -0.2640
     16 O          13.5449   43.2737    6.0839 O.2     1  UNL1       -0.2692
     17 H          14.3836   40.6164    7.6203 H       1  UNL1        0.1566
     18 C          15.5945   42.9341    7.2022 C.ar    1  UNL1        0.0831
     19 C          16.4157   42.2763    8.1045 C.ar    1  UNL1        0.0116
     20 C          17.6597   42.9042    8.2635 C.ar    1  UNL1        0.0076
     21 C          17.8280   44.0535    7.4941 C.ar    1  UNL1        0.0356
     22 S          16.4107   44.2766    6.6159 S.2     1  UNL1       -0.0819
     23 C           9.7731   38.7706    5.8815 C.3     1  UNL1        0.1292
     24 C           9.0514   39.4948    4.7559 C.3     1  UNL1        0.0264
     25 C           9.8017   37.8138    3.0751 C.3     1  UNL1        0.0001
     26 C           9.7782   39.2863    3.4397 C.3     1  UNL1        0.0021
@<TRIPOS>BOND
     1    25    26    1
     2    26    24    1
     3    24    23    1
     4    23    11    1
     5     1    15    1
     6     1     2   ar
     7    14    18    1
     8    18    22   ar
     9    19    20   ar
    10    21    22   ar
    11     3     4   ar
    12     5     6   ar
    13     7     8   ar
    14     9    13   ar
    15     9     4   ar
    16    10    11   ar
    17    10     2   ar
    18    11    12   ar
    19    15    14   am
    20     1    12   ar
    21    14    16    2
    22    18    19   ar
    23    20    21   ar
    24     2     3   ar
    25     4     5   ar
    26     6     7   ar
    27     8     9   ar
    28    10    13   ar
    29    15    17    1
@<TRIPOS>MOLECULE
MolPort-002-599-334 16975781 CHEMBL1547457 CSSS00160675839 MCULE-7236428736 PubChem-662537 ZINC000016975781 ZINC16975781
 26 29 0 0 0
SMALL
GASTEIGER

@<TRIPOS>ATOM
      1 C          12.3086   41.8197    7.8499 C.ar    1  UNL1        0.1571
      2 C          11.5844   41.0869    6.9225 C.ar    1  UNL1        0.0689
      3 C          11.9234   40.3286    5.8064 C.ar    1  UNL1        0.0074
      4 C          10.8647   39.7637    5.0745 C.ar    1  UNL1        0.0179
      5 C          11.1257   38.9782    3.9494 C.ar    1  UNL1        0.0015
      6 C          10.0667   38.4211    3.2261 C.ar    1  UNL1        0.0001
      7 C           8.7441   38.6470    3.6222 C.ar    1  UNL1        0.0015
      8 C           8.4674   39.4327    4.7455 C.ar    1  UNL1        0.0192
      9 C           9.5137   39.9955    5.4801 C.ar    1  UNL1        0.0829
     10 C          10.2817   41.2982    7.2682 C.ar    1  UNL1        0.1621
     11 N          10.2149   42.1213    8.3278 N.ar    1  UNL1       -0.2329
     12 N          11.4502   42.4513    8.6882 N.ar    1  UNL1       -0.1527
     13 N           9.2428   40.7705    6.5728 N.ar    1  UNL1       -0.2268
     14 C          14.5193   42.7278    6.9546 C.2     1  UNL1        0.2566
     15 N          13.7281   42.0059    7.9052 N.am    1  UNL1       -0.2640
     16 O          14.0578   43.0075    5.8161 O.2     1  UNL1       -0.2692
     17 H          14.2031   41.6005    8.6664 H       1  UNL1        0.1566
     18 C          15.8994   43.0960    7.2884 C.ar    1  UNL1        0.0831
     19 C          16.6881   42.4878    8.2524 C.ar    1  UNL1        0.0116
     20 C          17.9653   43.0595    8.3481 C.ar    1  UNL1        0.0076
     21 C          18.1921   44.1150    7.4674 C.ar    1  UNL1        0.0356
     22 S          16.7845   44.3263    6.5708 S.2     1  UNL1       -0.0819
     23 C           9.0162   42.5941    9.0039 C.3     1  UNL1        0.1292
     24 C           9.3592   43.0877   10.4006 C.3     1  UNL1        0.0264
     25 C          10.1033   41.1600   11.7950 C.3     1  UNL1        0.0001
     26 C           8.9390   42.0663   11.4418 C.3     1  UNL1        0.0021
@<TRIPOS>BOND
     1    25    26    1
     2    26    24    1
     3    24    23    1
     4    23    11    1
     5     1    15    1
     6     1     2   ar
     7    14    18    1
     8    18    22   ar
     9    19    20   ar
    10    21    22   ar
    11     3     4   ar
    12     5     6   ar
    13     7     8   ar
    14     9    13   ar
    15     9     4   ar
    16    10    11   ar
    17    10     2   ar
    18    11    12   ar
    19    15    14   am
    20     1    12   ar
    21    14    16    2
    22    18    19   ar
    23    20    21   ar
    24     2     3   ar
    25     4     5   ar
    26     6     7   ar
    27     8     9   ar
    28    10    13   ar
    29    15    17    1
@<TRIPOS>MOLECULE
MolPort-002-599-334 16975781 CHEMBL1547457 CSSS00160675839 MCULE-7236428736 PubChem-662537 ZINC000016975781 ZINC16975781
 26 29 0 0 0
SMALL
GASTEIGER

@<TRIPOS>ATOM
      1 C          11.9922   41.1913    8.0287 C.ar    1  UNL1        0.1571
      2 C          13.2212   41.7929    7.8066 C.ar    1  UNL1        0.0689
      3 C          13.6417   42.9014    7.0786 C.ar    1  UNL1        0.0074
      4 C          15.0219   43.1665    7.0618 C.ar    1  UNL1        0.0179
      5 C          15.5194   44.2694    6.3641 C.ar    1  UNL1        0.0015
      6 C          16.8940   44.5253    6.3512 C.ar    1  UNL1        0.0001
      7 C          17.7765   43.6808    7.0334 C.ar    1  UNL1        0.0015
      8 C          17.2931   42.5717    7.7348 C.ar    1  UNL1        0.0192
      9 C          15.9226   42.3027    7.7589 C.ar    1  UNL1        0.0829
     10 C          14.1139   40.9833    8.4459 C.ar    1  UNL1        0.1621
     11 N          13.4727   39.9447    9.0072 N.ar    1  UNL1       -0.2329
     12 N          12.1739   40.0593    8.7527 N.ar    1  UNL1       -0.1527
     13 N          15.4511   41.2139    8.4372 N.ar    1  UNL1       -0.2268
     14 C           9.5273   41.7986    8.2900 C.2     1  UNL1        0.2566
     15 N          10.7149   41.5909    7.5173 N.am    1  UNL1       -0.2640
     16 O           9.4380   41.3485    9.4633 O.2     1  UNL1       -0.2692
     17 H          10.6475   41.7358    6.5458 H       1  UNL1        0.1566
     18 C           8.3827   42.4928    7.6903 C.ar    1  UNL1        0.0831
     19 C           7.8077   42.1951    6.4647 C.ar    1  UNL1        0.0116
     20 C           6.7274   43.0341    6.1542 C.ar    1  UNL1        0.0076
     21 C           6.4443   43.9928    7.1247 C.ar    1  UNL1        0.0356
     22 S           7.5544   43.7824    8.3710 S.2     1  UNL1       -0.0819
     23 C          14.0582   38.8578    9.7774 C.3     1  UNL1        0.1292
     24 C          13.8173   39.0754   11.2629 C.3     1  UNL1        0.0264
     25 C          16.3021   38.8783   11.2481 C.3     1  UNL1        0.0001
     26 C          15.0404   38.6672   12.0637 C.3     1  UNL1        0.0021
@<TRIPOS>BOND
     1    25    26    1
     2    26    24    1
     3    24    23    1
     4    23    11    1
     5     1    15    1
     6     1     2   ar
     7    14    18    1
     8    18    22   ar
     9    19    20   ar
    10    21    22   ar
    11     3     4   ar
    12     5     6   ar
    13     7     8   ar
    14     9    13   ar
    15     9     4   ar
    16    10    11   ar
    17    10     2   ar
    18    11    12   ar
    19    15    14   am
    20     1    12   ar
    21    14    16    2
    22    18    19   ar
    23    20    21   ar
    24     2     3   ar
    25     4     5   ar
    26     6     7   ar
    27     8     9   ar
    28    10    13   ar
    29    15    17    1
@<TRIPOS>MOLECULE
MolPort-002-599-334 16975781 CHEMBL1547457 CSSS00160675839 MCULE-7236428736 PubChem-662537 ZINC000016975781 ZINC16975781
 26 29 0 0 0
SMALL
GASTEIGER

@<TRIPOS>ATOM
      1 C           7.8578   41.1400    9.4772 C.ar    1  UNL1        0.1571
      2 C           6.4992   41.2880    9.7091 C.ar    1  UNL1        0.0689
      3 C           5.7259   41.4963   10.8467 C.ar    1  UNL1        0.0074
      4 C           4.3323   41.5451   10.6696 C.ar    1  UNL1        0.0179
      5 C           3.4902   41.7644   11.7621 C.ar    1  UNL1        0.0015
      6 C           2.1049   41.8101   11.5776 C.ar    1  UNL1        0.0001
      7 C           1.5556   41.6358   10.3028 C.ar    1  UNL1        0.0015
      8 C           2.3862   41.4137    9.1998 C.ar    1  UNL1        0.0192
      9 C           3.7723   41.3665    9.3667 C.ar    1  UNL1        0.0829
     10 C           5.9259   41.1063    8.4845 C.ar    1  UNL1        0.1621
     11 N           6.8728   40.8465    7.5676 N.ar    1  UNL1       -0.2329
     12 N           8.0588   40.8589    8.1660 N.ar    1  UNL1       -0.1527
     13 N           4.5834   41.1408    8.2901 N.ar    1  UNL1       -0.2268
     14 C           8.7961   41.5265   11.8189 C.2     1  UNL1        0.2566
     15 N           8.9194   41.1636   10.4391 N.am    1  UNL1       -0.2640
     16 O           7.7823   42.1515   12.2301 O.2     1  UNL1       -0.2692
     17 H           9.8156   40.9070   10.1225 H       1  UNL1        0.1566
     18 C           9.8854   41.2176   12.7515 C.ar    1  UNL1        0.0831
     19 C           9.8087   41.2803   14.1340 C.ar    1  UNL1        0.0116
     20 C          11.0138   40.9306   14.7606 C.ar    1  UNL1        0.0076
     21 C          12.0425   40.5923   13.8840 C.ar    1  UNL1        0.0356
     22 S          11.4329   40.7345   12.3226 S.2     1  UNL1       -0.0819
     23 C           6.6805   40.5940    6.1474 C.3     1  UNL1        0.1292
     24 C           8.0205   40.3603    5.4678 C.3     1  UNL1        0.0264
     25 C          10.0791   38.9608    5.5986 C.3     1  UNL1        0.0001
     26 C           8.5856   39.0076    5.8612 C.3     1  UNL1        0.0021
@<TRIPOS>BOND
     1    25    26    1
     2    26    24    1
     3    24    23    1
     4    23    11    1
     5     1    15    1
     6     1     2   ar
     7    14    18    1
     8    18    22   ar
     9    19    20   ar
    10    21    22   ar
    11     3     4   ar
    12     5     6   ar
    13     7     8   ar
    14     9    13   ar
    15     9     4   ar
    16    10    11   ar
    17    10     2   ar
    18    11    12   ar
    19    15    14   am
    20     1    12   ar
    21    14    16    2
    22    18    19   ar
    23    20    21   ar
    24     2     3   ar
    25     4     5   ar
    26     6     7   ar
    27     8     9   ar
    28    10    13   ar
    29    15    17    1
@<TRIPOS>MOLECULE
MolPort-002-599-334 16975781 CHEMBL1547457 CSSS00160675839 MCULE-7236428736 PubChem-662537 ZINC000016975781 ZINC16975781
 26 29 0 0 0
SMALL
GASTEIGER

@<TRIPOS>ATOM
      1 C          13.3830   40.3116    8.8191 C.ar    1  UNL1        0.1571
      2 C          12.2321   40.8700    9.3533 C.ar    1  UNL1        0.0689
      3 C          11.7951   42.1733    9.5678 C.ar    1  UNL1        0.0074
      4 C          10.5487   42.3317   10.1979 C.ar    1  UNL1        0.0179
      5 C          10.0363   43.6092   10.4354 C.ar    1  UNL1        0.0015
      6 C           8.7963   43.7581   11.0641 C.ar    1  UNL1        0.0001
      7 C           8.0644   42.6330   11.4590 C.ar    1  UNL1        0.0015
      8 C           8.5656   41.3478   11.2293 C.ar    1  UNL1        0.0192
      9 C           9.8021   41.1815   10.6012 C.ar    1  UNL1        0.0829
     10 C          11.4973   39.7977    9.7672 C.ar    1  UNL1        0.1621
     11 N          12.1649   38.6588    9.5176 N.ar    1  UNL1       -0.2329
     12 N          13.3233   38.9625    8.9426 N.ar    1  UNL1       -0.1527
     13 N          10.2958   39.9255   10.3847 N.ar    1  UNL1       -0.2268
     14 C          14.5222   41.9983    7.2795 C.2     1  UNL1        0.2566
     15 N          14.5309   40.9951    8.3014 N.am    1  UNL1       -0.2640
     16 O          13.5177   42.1460    6.5335 O.2     1  UNL1       -0.2692
     17 H          15.4054   40.7531    8.6832 H       1  UNL1        0.1566
     18 C          15.7150   42.8238    7.0619 C.ar    1  UNL1        0.0831
     19 C          16.8647   42.8039    7.8360 C.ar    1  UNL1        0.0116
     20 C          17.8376   43.7082    7.3856 C.ar    1  UNL1        0.0076
     21 C          17.4658   44.4430    6.2617 C.ar    1  UNL1        0.0356
     22 S          15.9134   43.9529    5.8379 S.2     1  UNL1       -0.0819
     23 C          11.7305   37.3001    9.8049 C.3     1  UNL1        0.1292
     24 C          12.7924   36.5665   10.6089 C.3     1  UNL1        0.0264
     25 C          14.5124   35.4914    9.1600 C.3     1  UNL1        0.0001
     26 C          13.2043   35.2885    9.9012 C.3     1  UNL1        0.0021
@<TRIPOS>BOND
     1    25    26    1
     2    26    24    1
     3    24    23    1
     4    23    11    1
     5     1    15    1
     6     1     2   ar
     7    14    18    1
     8    18    22   ar
     9    19    20   ar
    10    21    22   ar
    11     3     4   ar
    12     5     6   ar
    13     7     8   ar
    14     9    13   ar
    15     9     4   ar
    16    10    11   ar
    17    10     2   ar
    18    11    12   ar
    19    15    14   am
    20     1    12   ar
    21    14    16    2
    22    18    19   ar
    23    20    21   ar
    24     2     3   ar
    25     4     5   ar
    26     6     7   ar
    27     8     9   ar
    28    10    13   ar
    29    15    17    1
@<TRIPOS>MOLECULE
MolPort-002-599-334 16975781 CHEMBL1547457 CSSS00160675839 MCULE-7236428736 PubChem-662537 ZINC000016975781 ZINC16975781
 26 29 0 0 0
SMALL
GASTEIGER

@<TRIPOS>ATOM
      1 C          12.5876   41.3862    8.4873 C.ar    1  UNL1        0.1571
      2 C          12.6780   40.0523    8.8533 C.ar    1  UNL1        0.0689
      3 C          13.6989   39.1074    8.8329 C.ar    1  UNL1        0.0074
      4 C          13.3722   37.8072    9.2554 C.ar    1  UNL1        0.0179
      5 C          14.3468   36.8069    9.2759 C.ar    1  UNL1        0.0015
      6 C          14.0133   35.5158    9.6963 C.ar    1  UNL1        0.0001
      7 C          12.7060   35.2183   10.0962 C.ar    1  UNL1        0.0015
      8 C          11.7192   36.2092   10.0793 C.ar    1  UNL1        0.0192
      9 C          12.0361   37.5045    9.6634 C.ar    1  UNL1        0.0829
     10 C          11.4109   39.7202    9.2348 C.ar    1  UNL1        0.1621
     11 N          10.5960   40.7789    9.0938 N.ar    1  UNL1       -0.2329
     12 N          11.3051   41.8026    8.6311 N.ar    1  UNL1       -0.1527
     13 N          11.0696   38.4706    9.6386 N.ar    1  UNL1       -0.2268
     14 C          15.0272   42.0442    8.1286 C.2     1  UNL1        0.2566
     15 N          13.6183   42.2172    7.9396 N.am    1  UNL1       -0.2640
     16 O          15.4653   41.3089    9.0531 O.2     1  UNL1       -0.2692
     17 H          13.3317   42.9766    7.3824 H       1  UNL1        0.1566
     18 C          15.9698   42.7740    7.2739 C.ar    1  UNL1        0.0831
     19 C          17.3496   42.7724    7.4062 C.ar    1  UNL1        0.0116
     20 C          17.9878   43.5679    6.4434 C.ar    1  UNL1        0.0076
     21 C          17.1231   44.1985    5.5512 C.ar    1  UNL1        0.0356
     22 S          15.5576   43.7535    5.9767 S.2     1  UNL1       -0.0819
     23 C           9.1728   40.8428    9.3903 C.3     1  UNL1        0.1292
     24 C           8.9297   41.6971   10.6245 C.3     1  UNL1        0.0264
     25 C           8.8154   41.1903   13.0625 C.3     1  UNL1        0.0001
     26 C           9.6794   41.1311   11.8168 C.3     1  UNL1        0.0021
@<TRIPOS>BOND
     1    25    26    1
     2    26    24    1
     3    24    23    1
     4    23    11    1
     5     1    15    1
     6     1     2   ar
     7    14    18    1
     8    18    22   ar
     9    19    20   ar
    10    21    22   ar
    11     3     4   ar
    12     5     6   ar
    13     7     8   ar
    14     9    13   ar
    15     9     4   ar
    16    10    11   ar
    17    10     2   ar
    18    11    12   ar
    19    15    14   am
    20     1    12   ar
    21    14    16    2
    22    18    19   ar
    23    20    21   ar
    24     2     3   ar
    25     4     5   ar
    26     6     7   ar
    27     8     9   ar
    28    10    13   ar
    29    15    17    1
@<TRIPOS>MOLECULE
MolPort-002-599-334 16975781 CHEMBL1547457 CSSS00160675839 MCULE-7236428736 PubChem-662537 ZINC000016975781 ZINC16975781
 26 29 0 0 0
SMALL
GASTEIGER

@<TRIPOS>ATOM
      1 C          12.5736   40.5470    8.4089 C.ar    1  UNL1        0.1571
      2 C          13.6812   41.3024    8.0564 C.ar    1  UNL1        0.0689
      3 C          13.9270   42.2711    7.0886 C.ar    1  UNL1        0.0074
      4 C          15.2345   42.7817    7.0159 C.ar    1  UNL1        0.0179
      5 C          15.5556   43.7666    6.0791 C.ar    1  UNL1        0.0015
      6 C          16.8590   44.2683    6.0124 C.ar    1  UNL1        0.0001
      7 C          17.8465   43.7878    6.8793 C.ar    1  UNL1        0.0015
      8 C          17.5402   42.8005    7.8212 C.ar    1  UNL1        0.0192
      9 C          16.2425   42.2896    7.9019 C.ar    1  UNL1        0.0829
     10 C          14.6743   40.8472    8.8734 C.ar    1  UNL1        0.1621
     11 N          14.2071   39.8647    9.6617 N.ar    1  UNL1       -0.2329
     12 N          12.9234   39.6690    9.3813 N.ar    1  UNL1       -0.1527
     13 N          15.9454   41.3186    8.8166 N.ar    1  UNL1       -0.2268
     14 C          10.2717   39.5504    7.9387 C.2     1  UNL1        0.2566
     15 N          11.2715   40.5676    7.8115 N.am    1  UNL1       -0.2640
     16 O          10.5761   38.3991    8.3500 O.2     1  UNL1       -0.2692
     17 H          11.0433   41.3530    7.2634 H       1  UNL1        0.1566
     18 C           8.8909   39.8341    7.5330 C.ar    1  UNL1        0.0831
     19 C           8.1953   39.1873    6.5236 C.ar    1  UNL1        0.0116
     20 C           6.8913   39.6781    6.3627 C.ar    1  UNL1        0.0076
     21 C           6.5510   40.7082    7.2369 C.ar    1  UNL1        0.0356
     22 S           7.8921   40.9988    8.2099 S.2     1  UNL1       -0.0819
     23 C          14.9430   39.1171   10.6702 C.3     1  UNL1        0.1292
     24 C          13.9788   38.4323   11.6261 C.3     1  UNL1        0.0264
     25 C          12.7791   36.4235   10.7665 C.3     1  UNL1        0.0001
     26 C          14.0374   36.9259   11.4492 C.3     1  UNL1        0.0021
@<TRIPOS>BOND
     1    25    26    1
     2    26    24    1
     3    24    23    1
     4    23    11    1
     5     1    15    1
     6     1     2   ar
     7    14    18    1
     8    18    22   ar
     9    19    20   ar
    10    21    22   ar
    11     3     4   ar
    12     5     6   ar
    13     7     8   ar
    14     9    13   ar
    15     9     4   ar
    16    10    11   ar
    17    10     2   ar
    18    11    12   ar
    19    15    14   am
    20     1    12   ar
    21    14    16    2
    22    18    19   ar
    23    20    21   ar
    24     2     3   ar
    25     4     5   ar
    26     6     7   ar
    27     8     9   ar
    28    10    13   ar
    29    15    17    1
@<TRIPOS>MOLECULE
MolPort-002-599-334 16975781 CHEMBL1547457 CSSS00160675839 MCULE-7236428736 PubChem-662537 ZINC000016975781 ZINC16975781
 26 29 0 0 0
SMALL
GASTEIGER

@<TRIPOS>ATOM
      1 C          13.1380   39.7913    8.6012 C.ar    1  UNL1        0.1571
      2 C          14.0721   40.7604    8.2695 C.ar    1  UNL1        0.0689
      3 C          14.0907   41.8235    7.3722 C.ar    1  UNL1        0.0074
      4 C          15.2792   42.5697    7.2931 C.ar    1  UNL1        0.0179
      5 C          15.3703   43.6603    6.4254 C.ar    1  UNL1        0.0015
      6 C          16.5568   44.3966    6.3516 C.ar    1  UNL1        0.0001
      7 C          17.6564   44.0460    7.1424 C.ar    1  UNL1        0.0015
      8 C          17.5804   42.9555    8.0146 C.ar    1  UNL1        0.0192
      9 C          16.4021   42.2103    8.1013 C.ar    1  UNL1        0.0829
     10 C          15.1702   40.4393    9.0125 C.ar    1  UNL1        0.1621
     11 N          14.9278   39.3347    9.7377 N.ar    1  UNL1       -0.2329
     12 N          13.6883   38.9264    9.4888 N.ar    1  UNL1       -0.1527
     13 N          16.3309   41.1392    8.9473 N.ar    1  UNL1       -0.2268
     14 C          10.5913   39.9085    8.7175 C.2     1  UNL1        0.2566
     15 N          11.8258   39.6142    8.0541 N.am    1  UNL1       -0.2640
     16 O          10.5562   40.0688    9.9667 O.2     1  UNL1       -0.2692
     17 H          11.7674   39.2575    7.1383 H       1  UNL1        0.1566
     18 C           9.3468   39.9682    7.9433 C.ar    1  UNL1        0.0831
     19 C           8.2771   40.8129    8.1956 C.ar    1  UNL1        0.0116
     20 C           7.2231   40.6397    7.2866 C.ar    1  UNL1        0.0076
     21 C           7.4512   39.6645    6.3181 C.ar    1  UNL1        0.0356
     22 S           8.9788   39.0225    6.6084 S.2     1  UNL1       -0.0819
     23 C          15.8355   38.6660   10.6577 C.3     1  UNL1        0.1292
     24 C          17.1403   39.4394   10.7655 C.3     1  UNL1        0.0264
     25 C          19.3756   38.8529    9.8312 C.3     1  UNL1        0.0001
     26 C          18.3168   38.4843   10.8533 C.3     1  UNL1        0.0021
@<TRIPOS>BOND
     1    25    26    1
     2    26    24    1
     3    24    23    1
     4    23    11    1
     5     1    15    1
     6     1     2   ar
     7    14    18    1
     8    18    22   ar
     9    19    20   ar
    10    21    22   ar
    11     3     4   ar
    12     5     6   ar
    13     7     8   ar
    14     9    13   ar
    15     9     4   ar
    16    10    11   ar
    17    10     2   ar
    18    11    12   ar
    19    15    14   am
    20     1    12   ar
    21    14    16    2
    22    18    19   ar
    23    20    21   ar
    24     2     3   ar
    25     4     5   ar
    26     6     7   ar
    27     8     9   ar
    28    10    13   ar
    29    15    17    1
@<TRIPOS>MOLECULE
MolPort-002-599-334 16975781 CHEMBL1547457 CSSS00160675839 MCULE-7236428736 PubChem-662537 ZINC000016975781 ZINC16975781
 26 29 0 0 0
SMALL
GASTEIGER

@<TRIPOS>ATOM
      1 C          12.3335   41.3021    7.6841 C.ar    1  UNL1        0.1571
      2 C          12.3301   40.1236    8.4140 C.ar    1  UNL1        0.0689
      3 C          13.2945   39.4246    9.1331 C.ar    1  UNL1        0.0074
      4 C          12.8996   38.2054    9.7103 C.ar    1  UNL1        0.0179
      5 C          13.8077   37.4528   10.4584 C.ar    1  UNL1        0.0015
      6 C          13.4072   36.2402   11.0280 C.ar    1  UNL1        0.0001
      7 C          12.0999   35.7742   10.8518 C.ar    1  UNL1        0.0015
      8 C          11.1802   36.5161   10.1038 C.ar    1  UNL1        0.0192
      9 C          11.5637   37.7302    9.5291 C.ar    1  UNL1        0.0829
     10 C          11.0693   39.6288    8.2505 C.ar    1  UNL1        0.1621
     11 N          10.3547   40.4442    7.4572 N.ar    1  UNL1       -0.2329
     12 N          11.1212   41.4687    7.1000 N.ar    1  UNL1       -0.1527
     13 N          10.6673   38.4508    8.7909 N.ar    1  UNL1       -0.2268
     14 C          14.7873   41.9767    7.8766 C.2     1  UNL1        0.2566
     15 N          13.4348   42.1901    7.4572 N.am    1  UNL1       -0.2640
     16 O          15.0588   41.1143    8.7542 O.2     1  UNL1       -0.2692
     17 H          13.2443   43.0231    6.9683 H       1  UNL1        0.1566
     18 C          15.8601   42.8085    7.3208 C.ar    1  UNL1        0.0831
     19 C          15.7335   43.6858    6.2551 C.ar    1  UNL1        0.0116
     20 C          16.9344   44.3417    5.9469 C.ar    1  UNL1        0.0076
     21 C          18.0092   43.9893    6.7604 C.ar    1  UNL1        0.0356
     22 S          17.4455   42.8530    7.8654 S.2     1  UNL1       -0.0819
     23 C           8.9712   40.2778    7.0379 C.3     1  UNL1        0.1292
     24 C           8.8771   40.2789    5.5202 C.3     1  UNL1        0.0264
     25 C          10.6756   39.4290    4.0178 C.3     1  UNL1        0.0001
     26 C           9.5412   39.0400    4.9472 C.3     1  UNL1        0.0021
@<TRIPOS>BOND
     1    25    26    1
     2    26    24    1
     3    24    23    1
     4    23    11    1
     5     1    15    1
     6     1     2   ar
     7    14    18    1
     8    18    22   ar
     9    19    20   ar
    10    21    22   ar
    11     3     4   ar
    12     5     6   ar
    13     7     8   ar
    14     9    13   ar
    15     9     4   ar
    16    10    11   ar
    17    10     2   ar
    18    11    12   ar
    19    15    14   am
    20     1    12   ar
    21    14    16    2
    22    18    19   ar
    23    20    21   ar
    24     2     3   ar
    25     4     5   ar
    26     6     7   ar
    27     8     9   ar
    28    10    13   ar
    29    15    17    1
