@<TRIPOS>MOLECULE
MolPort-002-859-468 CSSS00138420673 MCULE-9691580979
 26 28 0 0 0
SMALL
GASTEIGER

@<TRIPOS>ATOM
      1 C          13.2963   42.9836    6.0492 C.ar    1  UNL1        0.2420
      2 C          15.1891   43.8255    5.8607 C.ar    1  UNL1        0.2554
      3 C          17.4476   44.3537    6.1607 C.ar    1  UNL1        0.1034
      4 C          17.5179   43.4473    7.2367 C.ar    1  UNL1        0.0391
      5 C          16.3610   42.7360    7.6041 C.ar    1  UNL1        0.1048
      6 N          14.0478   42.4126    7.0210 N.ar    1  UNL1       -0.1271
      7 N          15.2369   42.9633    6.8780 N.ar    1  UNL1       -0.1944
      8 N          13.9752   43.8849    5.2880 N.ar    1  UNL1       -0.1757
      9 N          16.2785   44.5354    5.4796 N.ar    1  UNL1       -0.2083
     10 C          16.3600   41.7210    8.7171 C.3     1  UNL1        0.2058
     11 C          17.7389   41.1772    9.0723 C.3     1  UNL1        0.0540
     12 O          15.4094   40.6765    8.4909 O.3     1  UNL1       -0.4732
     13 C          14.6088   40.0771    9.4747 C.ar    1  UNL1        0.1383
     14 C          15.0264   38.9429   10.1895 C.ar    1  UNL1        0.0326
     15 C          14.1983   38.3741   11.1607 C.ar    1  UNL1       -0.0192
     16 C          14.6489   37.1725   11.9092 C.3     1  UNL1        0.0311
     17 C          12.9470   38.9359   11.4266 C.ar    1  UNL1       -0.0083
     18 C          12.5251   40.0660   10.7211 C.ar    1  UNL1       -0.0192
     19 C          11.1947   40.6643   11.0036 C.3     1  UNL1        0.0311
     20 C          13.3543   40.6335    9.7489 C.ar    1  UNL1        0.0326
     21 N          11.9160   42.6541    5.8566 N.pl3   1  UNL1       -0.2618
     22 H          11.4063   43.2056    5.2201 H       1  UNL1        0.1567
     23 C          11.2137   41.5912    6.5105 C.2     1  UNL1        0.2080
     24 N          10.2128   41.8210    7.2949 N.2     1  UNL1       -0.0644
     25 C           9.6459   39.4731    7.3572 C.3     1  UNL1        0.2885
     26 O           9.5625   40.7757    7.9055 O.2     1  UNL1       -0.3720
@<TRIPOS>BOND
     1    25    26    1
     2    23    21    1
     3     1     8   ar
     4     2     9   ar
     5     3     4   ar
     6     5     7   ar
     7    10     5    1
     8    10    11    1
     9    10    12    1
    10    13    12    1
    11    14    15   ar
    12    16    15    1
    13    17    18   ar
    14    19    18    1
    15    20    13   ar
    16    26    24    1
    17    21     1    1
    18     7     6   ar
    19     7     2   ar
    20    23    24    2
    21     1     6   ar
    22     2     8   ar
    23     3     9   ar
    24     4     5   ar
    25    13    14   ar
    26    15    17   ar
    27    18    20   ar
    28    21    22    1
@<TRIPOS>MOLECULE
MolPort-002-859-468 CSSS00138420673 MCULE-9691580979
 26 28 0 0 0
SMALL
GASTEIGER

@<TRIPOS>ATOM
      1 C          13.1048   42.8227    6.0419 C.ar    1  UNL1        0.2420
      2 C          15.0247   43.6102    5.8976 C.ar    1  UNL1        0.2554
      3 C          17.2885   44.0775    6.2532 C.ar    1  UNL1        0.1034
      4 C          17.3054   43.1775    7.3368 C.ar    1  UNL1        0.0391
      5 C          16.1198   42.5014    7.6783 C.ar    1  UNL1        0.1048
      6 N          13.8145   42.2382    7.0369 N.ar    1  UNL1       -0.1271
      7 N          15.0218   42.7545    6.9215 N.ar    1  UNL1       -0.1944
      8 N          13.8283   43.6991    5.2929 N.ar    1  UNL1       -0.1757
      9 N          16.1431   44.2866    5.5405 N.ar    1  UNL1       -0.2083
     10 C          16.0614   41.4951    8.7976 C.3     1  UNL1        0.2058
     11 C          17.4186   41.1369    9.3915 C.3     1  UNL1        0.0540
     12 O          15.3061   40.3348    8.4382 O.3     1  UNL1       -0.4732
     13 C          14.3208   39.7270    9.2306 C.ar    1  UNL1        0.1383
     14 C          13.2697   40.4579    9.8076 C.ar    1  UNL1        0.0326
     15 C          12.3087   39.8154   10.5926 C.ar    1  UNL1       -0.0192
     16 C          11.2024   40.5987   11.2007 C.3     1  UNL1        0.0311
     17 C          12.3896   38.4369   10.8055 C.ar    1  UNL1       -0.0083
     18 C          13.4314   37.7022   10.2328 C.ar    1  UNL1       -0.0192
     19 C          13.5179   36.2361   10.4582 C.3     1  UNL1        0.0311
     20 C          14.3928   38.3465    9.4482 C.ar    1  UNL1        0.0326
     21 N          11.7213   42.5302    5.8153 N.pl3   1  UNL1       -0.2618
     22 H          11.0915   43.2864    5.8408 H       1  UNL1        0.1567
     23 C          11.1755   41.2322    5.5548 C.2     1  UNL1        0.2080
     24 N          10.0318   41.0815    4.9723 N.2     1  UNL1       -0.0644
     25 C           9.7184   39.2139    3.4718 C.3     1  UNL1        0.2885
     26 O           9.5393   39.8201    4.7386 O.2     1  UNL1       -0.3720
@<TRIPOS>BOND
     1    25    26    1
     2    23    21    1
     3     1     8   ar
     4     2     9   ar
     5     3     4   ar
     6     5     7   ar
     7    10     5    1
     8    10    11    1
     9    10    12    1
    10    13    12    1
    11    14    15   ar
    12    16    15    1
    13    17    18   ar
    14    19    18    1
    15    20    13   ar
    16    26    24    1
    17    21     1    1
    18     7     6   ar
    19     7     2   ar
    20    23    24    2
    21     1     6   ar
    22     2     8   ar
    23     3     9   ar
    24     4     5   ar
    25    13    14   ar
    26    15    17   ar
    27    18    20   ar
    28    21    22    1
@<TRIPOS>MOLECULE
MolPort-002-859-468 CSSS00138420673 MCULE-9691580979
 26 28 0 0 0
SMALL
GASTEIGER

@<TRIPOS>ATOM
      1 C          12.7455   42.2749    6.3115 C.ar    1  UNL1        0.2420
      2 C          14.6947   42.7844    6.8293 C.ar    1  UNL1        0.2554
      3 C          16.8070   42.8367    7.8319 C.ar    1  UNL1        0.1034
      4 C          16.4442   41.7530    8.6555 C.ar    1  UNL1        0.0391
      5 C          15.1541   41.2057    8.5312 C.ar    1  UNL1        0.1048
      6 N          13.0990   41.4124    7.2946 N.ar    1  UNL1       -0.1271
      7 N          14.3335   41.7581    7.6017 N.ar    1  UNL1       -0.1944
      8 N          13.7232   43.1627    5.9819 N.ar    1  UNL1       -0.1757
      9 N          15.9248   43.3448    6.9224 N.ar    1  UNL1       -0.2083
     10 C          14.6999   40.0230    9.3459 C.3     1  UNL1        0.2058
     11 C          15.7424   39.4981   10.3261 C.3     1  UNL1        0.0540
     12 O          14.1565   38.9835    8.5274 O.3     1  UNL1       -0.4732
     13 C          13.9360   37.6588    8.9333 C.ar    1  UNL1        0.1383
     14 C          12.8506   37.2974    9.7477 C.ar    1  UNL1        0.0326
     15 C          12.6668   35.9667   10.1322 C.ar    1  UNL1       -0.0192
     16 C          11.5167   35.5957   10.9963 C.3     1  UNL1        0.0311
     17 C          13.5654   34.9862    9.7039 C.ar    1  UNL1       -0.0083
     18 C          14.6467   35.3375    8.8914 C.ar    1  UNL1       -0.0192
     19 C          15.6025   34.2954    8.4351 C.3     1  UNL1        0.0311
     20 C          14.8300   36.6696    8.5082 C.ar    1  UNL1        0.0326
     21 N          11.4565   42.2381    5.6886 N.pl3   1  UNL1       -0.2618
     22 H          11.2296   42.9779    5.0799 H       1  UNL1        0.1567
     23 C          10.4694   41.2176    5.8750 C.2     1  UNL1        0.2080
     24 N          10.3990   40.1908    5.0935 N.2     1  UNL1       -0.0644
     25 C           8.1619   39.6016    5.7906 C.3     1  UNL1        0.2885
     26 O           9.4382   39.2310    5.3029 O.2     1  UNL1       -0.3720
@<TRIPOS>BOND
     1    25    26    1
     2    23    21    1
     3     1     8   ar
     4     2     9   ar
     5     3     4   ar
     6     5     7   ar
     7    10     5    1
     8    10    11    1
     9    10    12    1
    10    13    12    1
    11    14    15   ar
    12    16    15    1
    13    17    18   ar
    14    19    18    1
    15    20    13   ar
    16    26    24    1
    17    21     1    1
    18     7     6   ar
    19     7     2   ar
    20    23    24    2
    21     1     6   ar
    22     2     8   ar
    23     3     9   ar
    24     4     5   ar
    25    13    14   ar
    26    15    17   ar
    27    18    20   ar
    28    21    22    1
@<TRIPOS>MOLECULE
MolPort-002-859-468 CSSS00138420673 MCULE-9691580979
 26 28 0 0 0
SMALL
GASTEIGER

@<TRIPOS>ATOM
      1 C          12.9752   42.3822    7.0011 C.ar    1  UNL1        0.2420
      2 C          13.0510   41.1471    8.6732 C.ar    1  UNL1        0.2554
      3 C          12.5362   40.0423   10.6692 C.ar    1  UNL1        0.1034
      4 C          11.3284   40.7618   10.7574 C.ar    1  UNL1        0.0391
      5 C          11.0184   41.6969    9.7529 C.ar    1  UNL1        0.1048
      6 N          11.8361   42.6316    7.6906 N.ar    1  UNL1       -0.1271
      7 N          11.9116   41.8383    8.7407 N.ar    1  UNL1       -0.1944
      8 N          13.7767   41.4490    7.5836 N.ar    1  UNL1       -0.1757
      9 N          13.3903   40.2426    9.6233 N.ar    1  UNL1       -0.2083
     10 C           9.7313   42.4795    9.7517 C.3     1  UNL1        0.2058
     11 C           9.7735   43.7591   10.5786 C.3     1  UNL1        0.0540
     12 O           8.6049   41.6614   10.0800 O.3     1  UNL1       -0.4732
     13 C           7.2598   42.0405    9.9567 C.ar    1  UNL1        0.1383
     14 C           6.2610   41.5396   10.8073 C.ar    1  UNL1        0.0326
     15 C           4.9317   41.9405   10.6505 C.ar    1  UNL1       -0.0192
     16 C           3.8825   41.4023   11.5541 C.3     1  UNL1        0.0311
     17 C           4.5904   42.8469    9.6435 C.ar    1  UNL1       -0.0083
     18 C           5.5790   43.3516    8.7944 C.ar    1  UNL1       -0.0192
     19 C           5.2169   44.3159    7.7234 C.3     1  UNL1        0.0311
     20 C           6.9086   42.9489    8.9518 C.ar    1  UNL1        0.0326
     21 N          13.2878   43.0496    5.7732 N.pl3   1  UNL1       -0.2618
     22 H          12.5757   43.1013    5.0953 H       1  UNL1        0.1567
     23 C          14.5471   43.6481    5.4468 C.2     1  UNL1        0.2080
     24 N          15.3105   44.1604    6.3549 N.2     1  UNL1       -0.0644
     25 C          17.7200   44.2047    6.5281 C.3     1  UNL1        0.2885
     26 O          16.5126   44.7264    6.0045 O.2     1  UNL1       -0.3720
@<TRIPOS>BOND
     1    25    26    1
     2    23    21    1
     3     1     8   ar
     4     2     9   ar
     5     3     4   ar
     6     5     7   ar
     7    10     5    1
     8    10    11    1
     9    10    12    1
    10    13    12    1
    11    14    15   ar
    12    16    15    1
    13    17    18   ar
    14    19    18    1
    15    20    13   ar
    16    26    24    1
    17    21     1    1
    18     7     6   ar
    19     7     2   ar
    20    23    24    2
    21     1     6   ar
    22     2     8   ar
    23     3     9   ar
    24     4     5   ar
    25    13    14   ar
    26    15    17   ar
    27    18    20   ar
    28    21    22    1
@<TRIPOS>MOLECULE
MolPort-002-859-468 CSSS00138420673 MCULE-9691580979
 26 28 0 0 0
SMALL
GASTEIGER

@<TRIPOS>ATOM
      1 C          11.6408   41.9206    6.1127 C.ar    1  UNL1        0.2420
      2 C           9.6255   41.4838    6.3860 C.ar    1  UNL1        0.2554
      3 C           7.5500   40.9808    7.3395 C.ar    1  UNL1        0.1034
      4 C           8.1395   40.9679    8.6188 C.ar    1  UNL1        0.0391
      5 C           9.5189   41.2194    8.7351 C.ar    1  UNL1        0.1048
      6 N          11.4824   41.7497    7.4473 N.ar    1  UNL1       -0.1271
      7 N          10.2010   41.4749    7.5898 N.ar    1  UNL1       -0.1944
      8 N          10.4929   41.7627    5.3986 N.ar    1  UNL1       -0.1757
      9 N           8.3019   41.2396    6.2298 N.ar    1  UNL1       -0.2083
     10 C          10.2194   41.2617   10.0679 C.3     1  UNL1        0.2058
     11 C           9.9489   42.5228   10.8799 C.3     1  UNL1        0.0540
     12 O          11.6178   40.9857    9.9489 O.3     1  UNL1       -0.4732
     13 C          12.2473   39.7911   10.3295 C.ar    1  UNL1        0.1383
     14 C          11.6459   38.5363   10.1407 C.ar    1  UNL1        0.0326
     15 C          12.3051   37.3692   10.5354 C.ar    1  UNL1       -0.0192
     16 C          11.6585   36.0469   10.3336 C.3     1  UNL1        0.0311
     17 C          13.5717   37.4469   11.1200 C.ar    1  UNL1       -0.0083
     18 C          14.1778   38.6919   11.3092 C.ar    1  UNL1       -0.0192
     19 C          15.5250   38.7754   11.9305 C.3     1  UNL1        0.0311
     20 C          13.5167   39.8589   10.9146 C.ar    1  UNL1        0.0326
     21 N          12.9084   42.2392    5.5274 N.pl3   1  UNL1       -0.2618
     22 H          13.2026   41.6904    4.7649 H       1  UNL1        0.1567
     23 C          13.7847   43.2875    5.9562 C.2     1  UNL1        0.2080
     24 N          14.1358   44.2453    5.1629 N.2     1  UNL1       -0.0644
     25 C          16.1545   44.8951    6.3207 C.3     1  UNL1        0.2885
     26 O          14.9786   45.2347    5.6092 O.2     1  UNL1       -0.3720
@<TRIPOS>BOND
     1    25    26    1
     2    23    21    1
     3     1     8   ar
     4     2     9   ar
     5     3     4   ar
     6     5     7   ar
     7    10     5    1
     8    10    11    1
     9    10    12    1
    10    13    12    1
    11    14    15   ar
    12    16    15    1
    13    17    18   ar
    14    19    18    1
    15    20    13   ar
    16    26    24    1
    17    21     1    1
    18     7     6   ar
    19     7     2   ar
    20    23    24    2
    21     1     6   ar
    22     2     8   ar
    23     3     9   ar
    24     4     5   ar
    25    13    14   ar
    26    15    17   ar
    27    18    20   ar
    28    21    22    1
@<TRIPOS>MOLECULE
MolPort-002-859-468 CSSS00138420673 MCULE-9691580979
 26 28 0 0 0
SMALL
GASTEIGER

@<TRIPOS>ATOM
      1 C          13.1927   42.2129    7.3454 C.ar    1  UNL1        0.2420
      2 C          13.7007   40.8628    8.8441 C.ar    1  UNL1        0.2554
      3 C          13.6552   39.5056   10.7482 C.ar    1  UNL1        0.1034
      4 C          12.3695   39.9876   11.0625 C.ar    1  UNL1        0.0391
      5 C          11.7742   40.9408   10.2160 C.ar    1  UNL1        0.1048
      6 N          12.1344   42.1913    8.1908 N.ar    1  UNL1       -0.1271
      7 N          12.4836   41.3311    9.1266 N.ar    1  UNL1       -0.1944
      8 N          14.2094   41.3877    7.7168 N.ar    1  UNL1       -0.1757
      9 N          14.3120   39.9498    9.6369 N.ar    1  UNL1       -0.2083
     10 C          10.3884   41.4786   10.4590 C.3     1  UNL1        0.2058
     11 C           9.9231   41.3844   11.9073 C.3     1  UNL1        0.0540
     12 O           9.4319   40.9302    9.5478 O.3     1  UNL1       -0.4732
     13 C           8.2419   41.5537    9.1435 C.ar    1  UNL1        0.1383
     14 C           8.1389   42.2514    7.9292 C.ar    1  UNL1        0.0326
     15 C           6.9359   42.8609    7.5633 C.ar    1  UNL1       -0.0192
     16 C           6.8386   43.5989    6.2776 C.3     1  UNL1        0.0311
     17 C           5.8257   42.7760    8.4073 C.ar    1  UNL1       -0.0083
     18 C           5.9197   42.0815    9.6164 C.ar    1  UNL1       -0.0192
     19 C           4.7394   41.9905   10.5144 C.3     1  UNL1        0.0311
     20 C           7.1243   41.4730    9.9817 C.ar    1  UNL1        0.0326
     21 N          13.2187   43.0350    6.1731 N.pl3   1  UNL1       -0.2618
     22 H          12.3567   43.2228    5.7360 H       1  UNL1        0.1567
     23 C          14.3907   43.6074    5.5820 C.2     1  UNL1        0.2080
     24 N          15.2779   44.2220    6.2928 N.2     1  UNL1       -0.0644
     25 C          17.5896   44.0093    5.6229 C.3     1  UNL1        0.2885
     26 O          16.3906   44.7589    5.6911 O.2     1  UNL1       -0.3720
@<TRIPOS>BOND
     1    25    26    1
     2    23    21    1
     3     1     8   ar
     4     2     9   ar
     5     3     4   ar
     6     5     7   ar
     7    10     5    1
     8    10    11    1
     9    10    12    1
    10    13    12    1
    11    14    15   ar
    12    16    15    1
    13    17    18   ar
    14    19    18    1
    15    20    13   ar
    16    26    24    1
    17    21     1    1
    18     7     6   ar
    19     7     2   ar
    20    23    24    2
    21     1     6   ar
    22     2     8   ar
    23     3     9   ar
    24     4     5   ar
    25    13    14   ar
    26    15    17   ar
    27    18    20   ar
    28    21    22    1
@<TRIPOS>MOLECULE
MolPort-002-859-468 CSSS00138420673 MCULE-9691580979
 26 28 0 0 0
SMALL
GASTEIGER

@<TRIPOS>ATOM
      1 C           9.9817   41.0633    6.7581 C.ar    1  UNL1        0.2420
      2 C          10.0227   41.1673    8.8353 C.ar    1  UNL1        0.2554
      3 C          10.6560   40.9670   11.0777 C.ar    1  UNL1        0.1034
      4 C          11.8259   40.2860   10.6878 C.ar    1  UNL1        0.0391
      5 C          12.0549   40.0555    9.3189 C.ar    1  UNL1        0.1048
      6 N          11.1264   40.4424    7.1318 N.ar    1  UNL1       -0.1271
      7 N          11.1251   40.5231    8.4476 N.ar    1  UNL1       -0.1944
      8 N           9.2492   41.5395    7.8018 N.ar    1  UNL1       -0.1757
      9 N           9.7611   41.4031   10.1436 N.ar    1  UNL1       -0.2083
     10 C          13.2978   39.3694    8.8155 C.3     1  UNL1        0.2058
     11 C          13.4205   37.9081    9.2309 C.3     1  UNL1        0.0540
     12 O          14.4812   40.1162    9.1117 O.3     1  UNL1       -0.4732
     13 C          14.9524   41.2182    8.3826 C.ar    1  UNL1        0.1383
     14 C          14.1652   41.8686    7.4187 C.ar    1  UNL1        0.0326
     15 C          14.6721   42.9622    6.7119 C.ar    1  UNL1       -0.0192
     16 C          13.8317   43.6413    5.6923 C.3     1  UNL1        0.0311
     17 C          15.9693   43.4158    6.9645 C.ar    1  UNL1       -0.0083
     18 C          16.7581   42.7752    7.9239 C.ar    1  UNL1       -0.0192
     19 C          18.1376   43.2571    8.1935 C.3     1  UNL1        0.0311
     20 C          16.2500   41.6804    8.6297 C.ar    1  UNL1        0.0326
     21 N           9.5970   41.1967    5.3852 N.pl3   1  UNL1       -0.2618
     22 H           9.2095   42.0583    5.1081 H       1  UNL1        0.1567
     23 C           9.7274   40.1844    4.3808 C.2     1  UNL1        0.2080
     24 N           8.7411   39.4118    4.0641 N.2     1  UNL1       -0.0644
     25 C           9.9299   37.4847    3.2209 C.3     1  UNL1        0.2885
     26 O           8.9030   38.4510    3.0950 O.2     1  UNL1       -0.3720
@<TRIPOS>BOND
     1    25    26    1
     2    23    21    1
     3     1     8   ar
     4     2     9   ar
     5     3     4   ar
     6     5     7   ar
     7    10     5    1
     8    10    11    1
     9    10    12    1
    10    13    12    1
    11    14    15   ar
    12    16    15    1
    13    17    18   ar
    14    19    18    1
    15    20    13   ar
    16    26    24    1
    17    21     1    1
    18     7     6   ar
    19     7     2   ar
    20    23    24    2
    21     1     6   ar
    22     2     8   ar
    23     3     9   ar
    24     4     5   ar
    25    13    14   ar
    26    15    17   ar
    27    18    20   ar
    28    21    22    1
@<TRIPOS>MOLECULE
MolPort-002-859-468 CSSS00138420673 MCULE-9691580979
 26 28 0 0 0
SMALL
GASTEIGER

@<TRIPOS>ATOM
      1 C          11.8735   41.9518    6.4000 C.ar    1  UNL1        0.2420
      2 C          13.8343   41.8985    7.0924 C.ar    1  UNL1        0.2554
      3 C          15.7468   41.5088    8.3809 C.ar    1  UNL1        0.1034
      4 C          14.9587   40.8744    9.3611 C.ar    1  UNL1        0.0391
      5 C          13.5694   40.7790    9.1603 C.ar    1  UNL1        0.1048
      6 N          11.8204   41.3203    7.5973 N.ar    1  UNL1       -0.1271
      7 N          13.0720   41.3016    8.0106 N.ar    1  UNL1       -0.1944
      8 N          13.1277   42.3367    6.0372 N.ar    1  UNL1       -0.1757
      9 N          15.1747   42.0175    7.2506 N.ar    1  UNL1       -0.2083
     10 C          12.6609   40.0836   10.1400 C.3     1  UNL1        0.2058
     11 C          13.1467   38.7072   10.5791 C.3     1  UNL1        0.0540
     12 O          11.3035   40.0588    9.6897 O.3     1  UNL1       -0.4732
     13 C          10.2134   40.6362   10.3578 C.ar    1  UNL1        0.1383
     14 C           9.1105   41.1668    9.6692 C.ar    1  UNL1        0.0326
     15 C           8.0448   41.7355   10.3715 C.ar    1  UNL1       -0.0192
     16 C           6.8842   42.2965    9.6330 C.3     1  UNL1        0.0311
     17 C           8.0720   41.7766   11.7678 C.ar    1  UNL1       -0.0083
     18 C           9.1650   41.2486   12.4604 C.ar    1  UNL1       -0.0192
     19 C           9.1945   41.2914   13.9453 C.3     1  UNL1        0.0311
     20 C          10.2311   40.6806   11.7564 C.ar    1  UNL1        0.0326
     21 N          10.7054   42.1822    5.6042 N.pl3   1  UNL1       -0.2618
     22 H          10.7280   42.9448    4.9820 H       1  UNL1        0.1567
     23 C           9.5073   41.3984    5.6358 C.2     1  UNL1        0.2080
     24 N           8.3390   41.9473    5.6967 N.2     1  UNL1       -0.0644
     25 C           7.2555   39.8803    6.3223 C.3     1  UNL1        0.2885
     26 O           7.2108   41.1632    5.7253 O.2     1  UNL1       -0.3720
@<TRIPOS>BOND
     1    25    26    1
     2    23    21    1
     3     1     8   ar
     4     2     9   ar
     5     3     4   ar
     6     5     7   ar
     7    10     5    1
     8    10    11    1
     9    10    12    1
    10    13    12    1
    11    14    15   ar
    12    16    15    1
    13    17    18   ar
    14    19    18    1
    15    20    13   ar
    16    26    24    1
    17    21     1    1
    18     7     6   ar
    19     7     2   ar
    20    23    24    2
    21     1     6   ar
    22     2     8   ar
    23     3     9   ar
    24     4     5   ar
    25    13    14   ar
    26    15    17   ar
    27    18    20   ar
    28    21    22    1
@<TRIPOS>MOLECULE
MolPort-002-859-468 CSSS00138420673 MCULE-9691580979
 26 28 0 0 0
SMALL
GASTEIGER

@<TRIPOS>ATOM
      1 C           9.4739   41.2826    7.4343 C.ar    1  UNL1        0.2420
      2 C           9.9189   41.1623    9.4628 C.ar    1  UNL1        0.2554
      3 C          10.9794   40.7392   11.5038 C.ar    1  UNL1        0.1034
      4 C          12.0558   40.1389   10.8216 C.ar    1  UNL1        0.0391
      5 C          12.0149   40.0648    9.4172 C.ar    1  UNL1        0.1048
      6 N          10.6742   40.6587    7.5080 N.ar    1  UNL1       -0.1271
      7 N          10.9293   40.5965    8.7998 N.ar    1  UNL1       -0.1944
      8 N           8.9557   41.6214    8.6465 N.ar    1  UNL1       -0.1757
      9 N           9.9160   41.2474   10.8150 N.ar    1  UNL1       -0.2083
     10 C          13.1407   39.4739    8.6096 C.3     1  UNL1        0.2058
     11 C          13.2490   37.9562    8.6995 C.3     1  UNL1        0.0540
     12 O          14.3888   40.1208    8.8740 O.3     1  UNL1       -0.4732
     13 C          14.8607   41.2741    8.2294 C.ar    1  UNL1        0.1383
     14 C          14.0969   41.9606    7.2717 C.ar    1  UNL1        0.0326
     15 C          14.6037   43.1050    6.6504 C.ar    1  UNL1       -0.0192
     16 C          13.7884   43.8221    5.6365 C.3     1  UNL1        0.0311
     17 C          15.8773   43.5735    6.9831 C.ar    1  UNL1       -0.0083
     18 C          16.6426   42.8971    7.9369 C.ar    1  UNL1       -0.0192
     19 C          17.9970   43.3949    8.2915 C.3     1  UNL1        0.0311
     20 C          16.1346   41.7516    8.5571 C.ar    1  UNL1        0.0326
     21 N           8.8274   41.5524    6.1853 N.pl3   1  UNL1       -0.2618
     22 H           9.2082   41.1309    5.3812 H       1  UNL1        0.1567
     23 C           7.6746   42.3827    6.0056 C.2     1  UNL1        0.2080
     24 N           7.2561   43.1736    6.9379 N.2     1  UNL1       -0.0644
     25 C           5.3533   44.3668    7.8286 C.3     1  UNL1        0.2885
     26 O           6.1459   43.9561    6.7297 O.2     1  UNL1       -0.3720
@<TRIPOS>BOND
     1    25    26    1
     2    23    21    1
     3     1     8   ar
     4     2     9   ar
     5     3     4   ar
     6     5     7   ar
     7    10     5    1
     8    10    11    1
     9    10    12    1
    10    13    12    1
    11    14    15   ar
    12    16    15    1
    13    17    18   ar
    14    19    18    1
    15    20    13   ar
    16    26    24    1
    17    21     1    1
    18     7     6   ar
    19     7     2   ar
    20    23    24    2
    21     1     6   ar
    22     2     8   ar
    23     3     9   ar
    24     4     5   ar
    25    13    14   ar
    26    15    17   ar
    27    18    20   ar
    28    21    22    1
@<TRIPOS>MOLECULE
MolPort-002-859-468 CSSS00138420673 MCULE-9691580979
 26 28 0 0 0
SMALL
GASTEIGER

@<TRIPOS>ATOM
      1 C          10.4232   39.0833    7.5275 C.ar    1  UNL1        0.2420
      2 C          10.9454   37.7544    9.0402 C.ar    1  UNL1        0.2554
      3 C          12.1087   36.6090   10.7149 C.ar    1  UNL1        0.1034
      4 C          13.2354   37.4245   10.4918 C.ar    1  UNL1        0.0391
      5 C          13.1706   38.4175    9.4972 C.ar    1  UNL1        0.1048
      6 N          11.7005   39.3907    7.8580 N.ar    1  UNL1       -0.1271
      7 N          12.0033   38.5357    8.8146 N.ar    1  UNL1       -0.1944
      8 N           9.9016   38.0539    8.2492 N.ar    1  UNL1       -0.1757
      9 N          10.9690   36.7821    9.9836 N.ar    1  UNL1       -0.2083
     10 C          14.3161   39.3559    9.2214 C.3     1  UNL1        0.2058
     11 C          15.3479   39.4334   10.3405 C.3     1  UNL1        0.0540
     12 O          13.8641   40.6501    8.8132 O.3     1  UNL1       -0.4732
     13 C          14.6386   41.6093    8.1437 C.ar    1  UNL1        0.1383
     14 C          15.9932   41.8207    8.4473 C.ar    1  UNL1        0.0326
     15 C          16.7301   42.7877    7.7586 C.ar    1  UNL1       -0.0192
     16 C          18.1619   43.0052    8.0898 C.3     1  UNL1        0.0311
     17 C          16.1193   43.5497    6.7593 C.ar    1  UNL1       -0.0083
     18 C          14.7722   43.3436    6.4498 C.ar    1  UNL1       -0.0192
     19 C          14.1220   44.1532    5.3869 C.3     1  UNL1        0.0311
     20 C          14.0358   42.3764    7.1404 C.ar    1  UNL1        0.0326
     21 N           9.7051   39.7901    6.5098 N.pl3   1  UNL1       -0.2618
     22 H          10.1293   39.8573    5.6240 H       1  UNL1        0.1567
     23 C           8.4231   40.4076    6.6702 C.2     1  UNL1        0.2080
     24 N           8.1346   41.5305    6.0994 N.2     1  UNL1       -0.0644
     25 C           6.7698   43.4931    6.4504 C.3     1  UNL1        0.2885
     26 O           6.8936   42.0936    6.2760 O.2     1  UNL1       -0.3720
@<TRIPOS>BOND
     1    25    26    1
     2    23    21    1
     3     1     8   ar
     4     2     9   ar
     5     3     4   ar
     6     5     7   ar
     7    10     5    1
     8    10    11    1
     9    10    12    1
    10    13    12    1
    11    14    15   ar
    12    16    15    1
    13    17    18   ar
    14    19    18    1
    15    20    13   ar
    16    26    24    1
    17    21     1    1
    18     7     6   ar
    19     7     2   ar
    20    23    24    2
    21     1     6   ar
    22     2     8   ar
    23     3     9   ar
    24     4     5   ar
    25    13    14   ar
    26    15    17   ar
    27    18    20   ar
    28    21    22    1
