@<TRIPOS>MOLECULE
MolPort-029-901-363 CSSS00160095993 MCULE-4458820928 PubChem-72911839
 27 29 0 0 0
SMALL
GASTEIGER

@<TRIPOS>ATOM
      1 C          10.4590   41.1878   10.6214 C.2     1  UNL1        0.3045
      2 N           9.1058   40.9469   11.0065 N.am    1  UNL1       -0.2881
      3 N          11.3706   40.0837   10.5594 N.am    1  UNL1       -0.2682
      4 O          10.8373   42.3577   10.3419 O.2     1  UNL1       -0.2525
      5 H           8.8277   40.0273   11.2215 H       1  UNL1        0.1510
      6 H          11.0070   39.1986   10.7910 H       1  UNL1        0.1564
      7 C           7.9275   42.6414    9.7008 C.3     1  UNL1        0.1134
      8 C           8.1256   42.0171   11.0913 C.3     1  UNL1        0.1019
      9 C           6.7778   41.4417   11.5431 C.3     1  UNL1        0.1066
     10 C           5.8959   41.7021   10.3911 C.2     1  UNL1        0.2274
     11 N           6.5569   42.3608    9.3326 N.am    1  UNL1       -0.2778
     12 O           4.6788   41.3818   10.3531 O.2     1  UNL1       -0.2748
     13 C           5.9376   42.8201    8.0972 C.3     1  UNL1        0.0935
     14 C           4.0916   44.4953    8.1477 C.3     1  UNL1        0.0018
     15 C           5.5951   44.2992    8.1845 C.3     1  UNL1        0.0215
     16 C          12.7569   40.1327   10.1953 C.ar    1  UNL1        0.0546
     17 C          13.1214   40.8077    9.0251 C.ar    1  UNL1        0.0516
     18 C          14.4610   40.8813    8.6292 C.ar    1  UNL1        0.1396
     19 C          15.4478   40.2713    9.4199 C.ar    1  UNL1        0.0370
     20 C          15.0932   39.5955   10.5896 C.ar    1  UNL1        0.0044
     21 C          13.7524   39.5262   10.9759 C.ar    1  UNL1        0.0149
     22 O          14.7824   41.5680    7.4534 O.3     1  UNL1       -0.4791
     23 C          14.7647   42.9877    7.3497 C.3     1  UNL1        0.1659
     24 C          14.1056   43.3936    6.0430 C.3     1  UNL1        0.0435
     25 C          15.1872   44.0166    5.1867 C.3     1  UNL1        0.0038
     26 C          16.2370   44.5004    6.1572 C.3     1  UNL1        0.0038
     27 C          16.1867   43.5244    7.3101 C.3     1  UNL1        0.0435
@<TRIPOS>BOND
     1    14    15    1
     2    15    13    1
     3    13    11    1
     4     7    11    1
     5     7     8    1
     6     8     9    1
     7     8     2    1
     8     9    10    1
     9    10    11   am
    10     1     3   am
    11    17    18   ar
    12    18    22    1
    13    23    22    1
    14    23    24    1
    15    24    25    1
    16    25    26    1
    17    26    27    1
    18    27    23    1
    19    19    20   ar
    20    21    16   ar
    21     2     1   am
    22     3    16    1
    23    10    12    2
    24     1     4    2
    25    16    17   ar
    26    18    19   ar
    27    20    21   ar
    28     2     5    1
    29     3     6    1
@<TRIPOS>MOLECULE
MolPort-029-901-363 CSSS00160095993 MCULE-4458820928 PubChem-72911839
 27 29 0 0 0
SMALL
GASTEIGER

@<TRIPOS>ATOM
      1 C          12.3876   41.9822    6.3972 C.2     1  UNL1        0.3045
      2 N          11.1783   42.2926    5.7052 N.am    1  UNL1       -0.2881
      3 N          13.4301   42.9643    6.4488 N.am    1  UNL1       -0.2682
      4 O          12.5273   40.8583    6.9515 O.2     1  UNL1       -0.2525
      5 H          11.0863   43.1748    5.2780 H       1  UNL1        0.1510
      6 H          13.2528   43.8193    5.9941 H       1  UNL1        0.1564
      7 C          10.5368   39.9751    6.1320 C.3     1  UNL1        0.1134
      8 C          10.0784   41.3467    5.6116 C.3     1  UNL1        0.1019
      9 C           8.9195   41.8207    6.4971 C.3     1  UNL1        0.1066
     10 C           8.8038   40.7502    7.5038 C.2     1  UNL1        0.2274
     11 N           9.7414   39.7133    7.3117 N.am    1  UNL1       -0.2778
     12 O           7.9543   40.7505    8.4332 O.2     1  UNL1       -0.2748
     13 C           9.8259   38.4869    8.0925 C.3     1  UNL1        0.0935
     14 C          11.3557   37.1879    9.5718 C.3     1  UNL1        0.0018
     15 C          10.9492   38.5753    9.1136 C.3     1  UNL1        0.0215
     16 C          14.7045   42.8324    7.0933 C.ar    1  UNL1        0.0546
     17 C          14.9234   41.7340    7.9320 C.ar    1  UNL1        0.0516
     18 C          16.1499   41.5638    8.5826 C.ar    1  UNL1        0.1396
     19 C          17.1708   42.5073    8.3866 C.ar    1  UNL1        0.0370
     20 C          16.9612   43.6067    7.5511 C.ar    1  UNL1        0.0044
     21 C          15.7323   43.7689    6.9069 C.ar    1  UNL1        0.0149
     22 O          16.3278   40.4502    9.4107 O.3     1  UNL1       -0.4791
     23 C          15.3679   39.4057    9.5301 C.3     1  UNL1        0.1659
     24 C          14.1480   39.9194   10.2747 C.3     1  UNL1        0.0435
     25 C          14.1110   39.1915   11.6013 C.3     1  UNL1        0.0038
     26 C          14.8825   37.9135   11.3782 C.3     1  UNL1        0.0038
     27 C          15.9398   38.2653   10.3571 C.3     1  UNL1        0.0435
@<TRIPOS>BOND
     1    14    15    1
     2    15    13    1
     3    13    11    1
     4     7    11    1
     5     7     8    1
     6     8     9    1
     7     8     2    1
     8     9    10    1
     9    10    11   am
    10     1     3   am
    11    17    18   ar
    12    18    22    1
    13    23    22    1
    14    23    24    1
    15    24    25    1
    16    25    26    1
    17    26    27    1
    18    27    23    1
    19    19    20   ar
    20    21    16   ar
    21     2     1   am
    22     3    16    1
    23    10    12    2
    24     1     4    2
    25    16    17   ar
    26    18    19   ar
    27    20    21   ar
    28     2     5    1
    29     3     6    1
@<TRIPOS>MOLECULE
MolPort-029-901-363 CSSS00160095993 MCULE-4458820928 PubChem-72911839
 27 29 0 0 0
SMALL
GASTEIGER

@<TRIPOS>ATOM
      1 C           9.3105   41.0534    8.8824 C.2     1  UNL1        0.3045
      2 N           7.9164   41.0763    9.1879 N.am    1  UNL1       -0.2881
      3 N          10.2335   40.6038    9.8824 N.am    1  UNL1       -0.2682
      4 O           9.7144   41.4251    7.7472 O.2     1  UNL1       -0.2525
      5 H           7.6187   40.7828   10.0792 H       1  UNL1        0.1510
      6 H           9.8483   40.3289   10.7457 H       1  UNL1        0.1564
      7 C           5.5153   41.3035    8.8035 C.3     1  UNL1        0.1134
      8 C           6.9225   41.5195    8.2241 C.3     1  UNL1        0.1019
      9 C           7.0967   43.0206    7.9630 C.3     1  UNL1        0.1066
     10 C           5.8304   43.5973    8.4493 C.2     1  UNL1        0.2274
     11 N           4.9417   42.6233    8.9518 N.am    1  UNL1       -0.2778
     12 O           5.5605   44.8267    8.4140 O.2     1  UNL1       -0.2748
     13 C           3.5887   42.8716    9.4299 C.3     1  UNL1        0.0935
     14 C           2.6791   42.0789   11.6118 C.3     1  UNL1        0.0018
     15 C           3.0620   41.6719   10.2018 C.3     1  UNL1        0.0215
     16 C          11.6593   40.5122    9.7574 C.ar    1  UNL1        0.0546
     17 C          12.2748   41.0874    8.6402 C.ar    1  UNL1        0.0516
     18 C          13.6623   41.0225    8.4751 C.ar    1  UNL1        0.1396
     19 C          14.4422   40.3738    9.4456 C.ar    1  UNL1        0.0370
     20 C          13.8364   39.7970   10.5640 C.ar    1  UNL1        0.0044
     21 C          12.4498   39.8656   10.7194 C.ar    1  UNL1        0.0149
     22 O          14.2375   41.6127    7.3445 O.3     1  UNL1       -0.4791
     23 C          14.5162   43.0054    7.2483 C.3     1  UNL1        0.1659
     24 C          13.9275   43.5536    5.9601 C.3     1  UNL1        0.0435
     25 C          15.0960   43.9441    5.0807 C.3     1  UNL1        0.0038
     26 C          16.2459   44.1871    6.0277 C.3     1  UNL1        0.0038
     27 C          16.0179   43.2320    7.1767 C.3     1  UNL1        0.0435
@<TRIPOS>BOND
     1    14    15    1
     2    15    13    1
     3    13    11    1
     4     7    11    1
     5     7     8    1
     6     8     9    1
     7     8     2    1
     8     9    10    1
     9    10    11   am
    10     1     3   am
    11    17    18   ar
    12    18    22    1
    13    23    22    1
    14    23    24    1
    15    24    25    1
    16    25    26    1
    17    26    27    1
    18    27    23    1
    19    19    20   ar
    20    21    16   ar
    21     2     1   am
    22     3    16    1
    23    10    12    2
    24     1     4    2
    25    16    17   ar
    26    18    19   ar
    27    20    21   ar
    28     2     5    1
    29     3     6    1
@<TRIPOS>MOLECULE
MolPort-029-901-363 CSSS00160095993 MCULE-4458820928 PubChem-72911839
 27 29 0 0 0
SMALL
GASTEIGER

@<TRIPOS>ATOM
      1 C           8.8631   41.7034    7.8766 C.2     1  UNL1        0.3045
      2 N           9.8701   40.8041    8.3400 N.am    1  UNL1       -0.2881
      3 N           7.6970   41.9153    8.6823 N.am    1  UNL1       -0.2682
      4 O           9.0064   42.2978    6.7738 O.2     1  UNL1       -0.2525
      5 H           9.7418   40.3483    9.2032 H       1  UNL1        0.1510
      6 H           7.6514   41.4182    9.5308 H       1  UNL1        0.1564
      7 C          11.5690   41.8435    6.9266 C.3     1  UNL1        0.1134
      8 C          11.0790   40.5400    7.5771 C.3     1  UNL1        0.1019
      9 C          12.1813   40.0438    8.5208 C.3     1  UNL1        0.1066
     10 C          13.2111   41.0935    8.4189 C.2     1  UNL1        0.2274
     11 N          12.8511   42.1304    7.5323 N.am    1  UNL1       -0.2778
     12 O          14.3024   41.0685    9.0465 O.2     1  UNL1       -0.2748
     13 C          13.6880   43.2636    7.1634 C.3     1  UNL1        0.0935
     14 C          15.4501   43.9990    5.5601 C.3     1  UNL1        0.0018
     15 C          14.8493   42.8136    6.2908 C.3     1  UNL1        0.0215
     16 C           6.5894   42.7755    8.3822 C.ar    1  UNL1        0.0546
     17 C           5.3754   42.5649    9.0452 C.ar    1  UNL1        0.0516
     18 C           4.2674   43.3780    8.7847 C.ar    1  UNL1        0.1396
     19 C           4.3805   44.4176    7.8481 C.ar    1  UNL1        0.0370
     20 C           5.5883   44.6353    7.1816 C.ar    1  UNL1        0.0044
     21 C           6.6890   43.8170    7.4474 C.ar    1  UNL1        0.0149
     22 O           3.0729   43.1345    9.4714 O.3     1  UNL1       -0.4791
     23 C           2.7009   41.8493    9.9576 C.3     1  UNL1        0.1659
     24 C           2.4151   41.9326   11.4469 C.3     1  UNL1        0.0435
     25 C           3.5005   41.1389   12.1420 C.3     1  UNL1        0.0038
     26 C           4.0048   40.1606   11.1092 C.3     1  UNL1        0.0038
     27 C           3.8542   40.8738    9.7851 C.3     1  UNL1        0.0435
@<TRIPOS>BOND
     1    14    15    1
     2    15    13    1
     3    13    11    1
     4     7    11    1
     5     7     8    1
     6     8     9    1
     7     8     2    1
     8     9    10    1
     9    10    11   am
    10     1     3   am
    11    17    18   ar
    12    18    22    1
    13    23    22    1
    14    23    24    1
    15    24    25    1
    16    25    26    1
    17    26    27    1
    18    27    23    1
    19    19    20   ar
    20    21    16   ar
    21     2     1   am
    22     3    16    1
    23    10    12    2
    24     1     4    2
    25    16    17   ar
    26    18    19   ar
    27    20    21   ar
    28     2     5    1
    29     3     6    1
@<TRIPOS>MOLECULE
MolPort-029-901-363 CSSS00160095993 MCULE-4458820928 PubChem-72911839
 27 29 0 0 0
SMALL
GASTEIGER

@<TRIPOS>ATOM
      1 C          11.5285   40.7798   10.3097 C.2     1  UNL1        0.3045
      2 N          12.4181   39.9539   11.0606 N.am    1  UNL1       -0.2881
      3 N          10.5820   41.5972   11.0096 N.am    1  UNL1       -0.2682
      4 O          11.5821   40.7834    9.0499 O.2     1  UNL1       -0.2525
      5 H          12.3623   39.9633   12.0435 H       1  UNL1        0.1510
      6 H          10.5960   41.5441   11.9926 H       1  UNL1        0.1564
      7 C          14.3812   39.9645    9.6078 C.3     1  UNL1        0.1134
      8 C          13.4040   39.0993   10.4194 C.3     1  UNL1        0.1019
      9 C          14.2128   38.3582   11.4911 C.3     1  UNL1        0.1066
     10 C          15.5825   38.8648   11.2911 C.2     1  UNL1        0.2274
     11 N          15.6733   39.7985   10.2371 N.am    1  UNL1       -0.2778
     12 O          16.5724   38.4999   11.9784 O.2     1  UNL1       -0.2748
     13 C          16.8992   40.4152    9.7497 C.3     1  UNL1        0.0935
     14 C          17.8672   42.1844    8.2836 C.3     1  UNL1        0.0018
     15 C          16.5851   41.5460    8.7826 C.3     1  UNL1        0.0215
     16 C           9.6166   42.4843   10.4284 C.ar    1  UNL1        0.0546
     17 C           8.3737   41.9682   10.0456 C.ar    1  UNL1        0.0516
     18 C           7.4009   42.7949    9.4739 C.ar    1  UNL1        0.1396
     19 C           7.6788   44.1582    9.2864 C.ar    1  UNL1        0.0370
     20 C           8.9167   44.6821    9.6655 C.ar    1  UNL1        0.0044
     21 C           9.8824   43.8481   10.2343 C.ar    1  UNL1        0.0149
     22 O           6.1705   42.2388    9.1076 O.3     1  UNL1       -0.4791
     23 C           5.4633   41.3070    9.9188 C.3     1  UNL1        0.1659
     24 C           4.1691   40.9123    9.2290 C.3     1  UNL1        0.0435
     25 C           3.0414   41.4744   10.0678 C.3     1  UNL1        0.0038
     26 C           3.6159   41.6362   11.4541 C.3     1  UNL1        0.0038
     27 C           5.0779   41.9542   11.2395 C.3     1  UNL1        0.0435
@<TRIPOS>BOND
     1    14    15    1
     2    15    13    1
     3    13    11    1
     4     7    11    1
     5     7     8    1
     6     8     9    1
     7     8     2    1
     8     9    10    1
     9    10    11   am
    10     1     3   am
    11    17    18   ar
    12    18    22    1
    13    23    22    1
    14    23    24    1
    15    24    25    1
    16    25    26    1
    17    26    27    1
    18    27    23    1
    19    19    20   ar
    20    21    16   ar
    21     2     1   am
    22     3    16    1
    23    10    12    2
    24     1     4    2
    25    16    17   ar
    26    18    19   ar
    27    20    21   ar
    28     2     5    1
    29     3     6    1
@<TRIPOS>MOLECULE
MolPort-029-901-363 CSSS00160095993 MCULE-4458820928 PubChem-72911839
 27 29 0 0 0
SMALL
GASTEIGER

@<TRIPOS>ATOM
      1 C           9.6876   41.5918    8.9043 C.2     1  UNL1        0.3045
      2 N           8.3710   42.0115    9.2622 N.am    1  UNL1       -0.2881
      3 N          10.6675   41.4231    9.9365 N.am    1  UNL1       -0.2682
      4 O           9.9747   41.3754    7.6957 O.2     1  UNL1       -0.2525
      5 H           8.1643   42.1762   10.2105 H       1  UNL1        0.1510
      6 H          10.3739   41.6099   10.8574 H       1  UNL1        0.1564
      7 C           6.1628   41.2409    8.5589 C.3     1  UNL1        0.1134
      8 C           7.3260   42.2032    8.2700 C.3     1  UNL1        0.1019
      9 C           6.7850   43.6349    8.3670 C.3     1  UNL1        0.1066
     10 C           5.3774   43.4385    8.7579 C.2     1  UNL1        0.2274
     11 N           5.0308   42.0774    8.8929 N.am    1  UNL1       -0.2778
     12 O           4.5632   44.3808    8.9439 O.2     1  UNL1       -0.2748
     13 C           3.7014   41.5634    9.1920 C.3     1  UNL1        0.0935
     14 C           4.2247   41.2843   11.6137 C.3     1  UNL1        0.0018
     15 C           3.7520   40.5840   10.3542 C.3     1  UNL1        0.0215
     16 C          12.0307   41.0106    9.7686 C.ar    1  UNL1        0.0546
     17 C          12.5778   40.1069   10.6861 C.ar    1  UNL1        0.0516
     18 C          13.9031   39.6767   10.5633 C.ar    1  UNL1        0.1396
     19 C          14.6886   40.1582    9.5041 C.ar    1  UNL1        0.0370
     20 C          14.1509   41.0604    8.5835 C.ar    1  UNL1        0.0044
     21 C          12.8267   41.4855    8.7153 C.ar    1  UNL1        0.0149
     22 O          14.4100   38.7705   11.5011 O.3     1  UNL1       -0.4791
     23 C          14.4187   37.3615   11.2983 C.3     1  UNL1        0.1659
     24 C          15.2260   37.0320   10.0549 C.3     1  UNL1        0.0435
     25 C          14.2477   36.4960    9.0317 C.3     1  UNL1        0.0038
     26 C          13.0801   35.9710    9.8311 C.3     1  UNL1        0.0038
     27 C          13.0042   36.8629   11.0489 C.3     1  UNL1        0.0435
@<TRIPOS>BOND
     1    14    15    1
     2    15    13    1
     3    13    11    1
     4     7    11    1
     5     7     8    1
     6     8     9    1
     7     8     2    1
     8     9    10    1
     9    10    11   am
    10     1     3   am
    11    17    18   ar
    12    18    22    1
    13    23    22    1
    14    23    24    1
    15    24    25    1
    16    25    26    1
    17    26    27    1
    18    27    23    1
    19    19    20   ar
    20    21    16   ar
    21     2     1   am
    22     3    16    1
    23    10    12    2
    24     1     4    2
    25    16    17   ar
    26    18    19   ar
    27    20    21   ar
    28     2     5    1
    29     3     6    1
@<TRIPOS>MOLECULE
MolPort-029-901-363 CSSS00160095993 MCULE-4458820928 PubChem-72911839
 27 29 0 0 0
SMALL
GASTEIGER

@<TRIPOS>ATOM
      1 C          11.2893   40.7500    8.7665 C.2     1  UNL1        0.3045
      2 N           9.8743   40.9353    8.7978 N.am    1  UNL1       -0.2881
      3 N          11.9549   40.2829    9.9467 N.am    1  UNL1       -0.2682
      4 O          11.9353   40.9961    7.7120 O.2     1  UNL1       -0.2525
      5 H           9.3858   40.7385    9.6295 H       1  UNL1        0.1510
      6 H          11.3883   40.1113   10.7334 H       1  UNL1        0.1564
      7 C          10.0399   41.3688    6.4000 C.3     1  UNL1        0.1134
      8 C           9.1321   41.4057    7.6397 C.3     1  UNL1        0.1019
      9 C           7.9445   40.4710    7.3791 C.3     1  UNL1        0.1066
     10 C           8.2460   39.9035    6.0525 C.2     1  UNL1        0.2274
     11 N           9.4514   40.3942    5.5074 N.am    1  UNL1       -0.2778
     12 O           7.5057   39.0755    5.4593 O.2     1  UNL1       -0.2748
     13 C           9.9769   40.0821    4.1856 C.3     1  UNL1        0.0935
     14 C          10.1058   37.7259    3.3806 C.3     1  UNL1        0.0018
     15 C           9.2045   38.9329    3.5569 C.3     1  UNL1        0.0215
     16 C          13.3596   40.0393   10.1021 C.ar    1  UNL1        0.0546
     17 C          14.2558   40.7144    9.2661 C.ar    1  UNL1        0.0516
     18 C          15.6346   40.5083    9.3802 C.ar    1  UNL1        0.1396
     19 C          16.1201   39.6147   10.3479 C.ar    1  UNL1        0.0370
     20 C          15.2330   38.9365   11.1868 C.ar    1  UNL1        0.0044
     21 C          13.8575   39.1478   11.0642 C.ar    1  UNL1        0.0149
     22 O          16.4959   41.2054    8.5259 O.3     1  UNL1       -0.4791
     23 C          16.4965   42.6240    8.4067 C.3     1  UNL1        0.1659
     24 C          15.7740   43.0271    7.1332 C.3     1  UNL1        0.0435
     25 C          16.8175   43.6219    6.2120 C.3     1  UNL1        0.0038
     26 C          17.9267   44.0978    7.1181 C.3     1  UNL1        0.0038
     27 C          17.9230   43.1353    8.2835 C.3     1  UNL1        0.0435
@<TRIPOS>BOND
     1    14    15    1
     2    15    13    1
     3    13    11    1
     4     7    11    1
     5     7     8    1
     6     8     9    1
     7     8     2    1
     8     9    10    1
     9    10    11   am
    10     1     3   am
    11    17    18   ar
    12    18    22    1
    13    23    22    1
    14    23    24    1
    15    24    25    1
    16    25    26    1
    17    26    27    1
    18    27    23    1
    19    19    20   ar
    20    21    16   ar
    21     2     1   am
    22     3    16    1
    23    10    12    2
    24     1     4    2
    25    16    17   ar
    26    18    19   ar
    27    20    21   ar
    28     2     5    1
    29     3     6    1
@<TRIPOS>MOLECULE
MolPort-029-901-363 CSSS00160095993 MCULE-4458820928 PubChem-72911839
 27 29 0 0 0
SMALL
GASTEIGER

@<TRIPOS>ATOM
      1 C           9.6800   42.0628    8.0762 C.2     1  UNL1        0.3045
      2 N           8.4321   42.1396    8.7649 N.am    1  UNL1       -0.2881
      3 N          10.8959   42.1447    8.8305 N.am    1  UNL1       -0.2682
      4 O           9.7022   41.9250    6.8231 O.2     1  UNL1       -0.2525
      5 H           8.4334   42.2474    9.7435 H       1  UNL1        0.1510
      6 H          10.8036   42.2522    9.8048 H       1  UNL1        0.1564
      7 C           6.0995   41.4548    8.9982 C.3     1  UNL1        0.1134
      8 C           7.1595   42.0637    8.0664 C.3     1  UNL1        0.1019
      9 C           6.6972   43.4767    7.6905 C.3     1  UNL1        0.1066
     10 C           5.4468   43.6375    8.4544 C.2     1  UNL1        0.2274
     11 N           5.1209   42.4973    9.2189 N.am    1  UNL1       -0.2778
     12 O           4.7356   44.6761    8.4246 O.2     1  UNL1       -0.2748
     13 C           3.9137   42.3226   10.0145 C.3     1  UNL1        0.0935
     14 C           3.9184   40.2969   11.4682 C.3     1  UNL1        0.0018
     15 C           4.2517   41.7746   11.3922 C.3     1  UNL1        0.0215
     16 C          12.2330   42.0865    8.3151 C.ar    1  UNL1        0.0546
     17 C          13.1472   41.2129    8.9141 C.ar    1  UNL1        0.0516
     18 C          14.4623   41.1224    8.4463 C.ar    1  UNL1        0.1396
     19 C          14.8641   41.9177    7.3614 C.ar    1  UNL1        0.0370
     20 C          13.9584   42.7925    6.7573 C.ar    1  UNL1        0.0044
     21 C          12.6474   42.8769    7.2326 C.ar    1  UNL1        0.0149
     22 O          15.3437   40.2342    9.0724 O.3     1  UNL1       -0.4791
     23 C          14.9333   38.9884    9.6257 C.3     1  UNL1        0.1659
     24 C          14.2228   39.2284   10.9464 C.3     1  UNL1        0.0435
     25 C          15.1103   38.6504   12.0278 C.3     1  UNL1        0.0038
     26 C          15.9567   37.6091   11.3368 C.3     1  UNL1        0.0038
     27 C          16.1495   38.1286    9.9306 C.3     1  UNL1        0.0435
@<TRIPOS>BOND
     1    14    15    1
     2    15    13    1
     3    13    11    1
     4     7    11    1
     5     7     8    1
     6     8     9    1
     7     8     2    1
     8     9    10    1
     9    10    11   am
    10     1     3   am
    11    17    18   ar
    12    18    22    1
    13    23    22    1
    14    23    24    1
    15    24    25    1
    16    25    26    1
    17    26    27    1
    18    27    23    1
    19    19    20   ar
    20    21    16   ar
    21     2     1   am
    22     3    16    1
    23    10    12    2
    24     1     4    2
    25    16    17   ar
    26    18    19   ar
    27    20    21   ar
    28     2     5    1
    29     3     6    1
@<TRIPOS>MOLECULE
MolPort-029-901-363 CSSS00160095993 MCULE-4458820928 PubChem-72911839
 27 29 0 0 0
SMALL
GASTEIGER

@<TRIPOS>ATOM
      1 C           9.2107   40.6169    8.4412 C.2     1  UNL1        0.3045
      2 N          10.2545   39.9379    9.1390 N.am    1  UNL1       -0.2881
      3 N           8.5590   41.7255    9.0739 N.am    1  UNL1       -0.2682
      4 O           8.8739   40.2396    7.2862 O.2     1  UNL1       -0.2525
      5 H          10.5044   40.2457   10.0401 H       1  UNL1        0.1510
      6 H           8.8728   41.9648    9.9759 H       1  UNL1        0.1564
      7 C          12.4307   39.1859    8.3245 C.3     1  UNL1        0.1134
      8 C          10.9601   38.8062    8.5605 C.3     1  UNL1        0.1019
      9 C          10.9317   37.6292    9.5432 C.3     1  UNL1        0.1066
     10 C          12.3550   37.4263    9.8686 C.2     1  UNL1        0.2274
     11 N          13.2053   38.3292    9.1958 N.am    1  UNL1       -0.2778
     12 O          12.7746   36.5373   10.6554 O.2     1  UNL1       -0.2748
     13 C          14.6605   38.3300    9.2510 C.3     1  UNL1        0.0935
     14 C          16.6771   39.4360   10.2136 C.3     1  UNL1        0.0018
     15 C          15.1615   39.3827   10.2275 C.3     1  UNL1        0.0215
     16 C           7.4978   42.5230    8.5310 C.ar    1  UNL1        0.0546
     17 C           6.3376   42.7061    9.2913 C.ar    1  UNL1        0.0516
     18 C           5.2761   43.4750    8.8029 C.ar    1  UNL1        0.1396
     19 C           5.3818   44.0699    7.5357 C.ar    1  UNL1        0.0370
     20 C           6.5362   43.8926    6.7698 C.ar    1  UNL1        0.0044
     21 C           7.5905   43.1216    7.2655 C.ar    1  UNL1        0.0149
     22 O           4.1349   43.6347    9.5966 O.3     1  UNL1       -0.4791
     23 C           3.2385   42.5704    9.8967 C.3     1  UNL1        0.1659
     24 C           3.1652   42.3768   11.4013 C.3     1  UNL1        0.0435
     25 C           3.7956   41.0328   11.6971 C.3     1  UNL1        0.0038
     26 C           3.6723   40.2425   10.4171 C.3     1  UNL1        0.0038
     27 C           3.7617   41.2686    9.3110 C.3     1  UNL1        0.0435
@<TRIPOS>BOND
     1    14    15    1
     2    15    13    1
     3    13    11    1
     4     7    11    1
     5     7     8    1
     6     8     9    1
     7     8     2    1
     8     9    10    1
     9    10    11   am
    10     1     3   am
    11    17    18   ar
    12    18    22    1
    13    23    22    1
    14    23    24    1
    15    24    25    1
    16    25    26    1
    17    26    27    1
    18    27    23    1
    19    19    20   ar
    20    21    16   ar
    21     2     1   am
    22     3    16    1
    23    10    12    2
    24     1     4    2
    25    16    17   ar
    26    18    19   ar
    27    20    21   ar
    28     2     5    1
    29     3     6    1
@<TRIPOS>MOLECULE
MolPort-029-901-363 CSSS00160095993 MCULE-4458820928 PubChem-72911839
 27 29 0 0 0
SMALL
GASTEIGER

@<TRIPOS>ATOM
      1 C          12.3531   41.6538    7.2608 C.2     1  UNL1        0.3045
      2 N          11.0964   41.6858    6.5848 N.am    1  UNL1       -0.2881
      3 N          13.4544   42.3908    6.7150 N.am    1  UNL1       -0.2682
      4 O          12.4827   40.9845    8.3215 O.2     1  UNL1       -0.2525
      5 H          11.0131   42.2134    5.7577 H       1  UNL1        0.1510
      6 H          13.2818   42.8906    5.8845 H       1  UNL1        0.1564
      7 C           9.1483   41.8611    8.0473 C.3     1  UNL1        0.1134
      8 C           9.9357   40.9636    7.0792 C.3     1  UNL1        0.1019
      9 C           9.0116   40.6157    5.9059 C.3     1  UNL1        0.1066
     10 C           7.7782   41.3615    6.2144 C.2     1  UNL1        0.2274
     11 N           7.8656   42.0911    7.4190 N.am    1  UNL1       -0.2778
     12 O           6.7492   41.3458    5.4890 O.2     1  UNL1       -0.2748
     13 C           6.7897   42.8609    8.0277 C.3     1  UNL1        0.0935
     14 C           5.1218   44.6723    7.6357 C.3     1  UNL1        0.0018
     15 C           6.4197   44.0510    7.1563 C.3     1  UNL1        0.0215
     16 C          14.7817   42.4767    7.2515 C.ar    1  UNL1        0.0546
     17 C          15.1993   41.5083    8.1711 C.ar    1  UNL1        0.0516
     18 C          16.4844   41.5516    8.7218 C.ar    1  UNL1        0.1396
     19 C          17.3625   42.5792    8.3424 C.ar    1  UNL1        0.0370
     20 C          16.9542   43.5501    7.4252 C.ar    1  UNL1        0.0044
     21 C          15.6682   43.4993    6.8818 C.ar    1  UNL1        0.0149
     22 O          16.8626   40.5623    9.6360 O.3     1  UNL1       -0.4791
     23 C          16.1844   39.3170    9.7624 C.3     1  UNL1        0.1659
     24 C          14.9556   39.4942   10.6372 C.3     1  UNL1        0.0435
     25 C          15.2134   38.7168   11.9102 C.3     1  UNL1        0.0038
     26 C          16.2333   37.6680   11.5390 C.3     1  UNL1        0.0038
     27 C          17.0793   38.3058   10.4611 C.3     1  UNL1        0.0435
@<TRIPOS>BOND
     1    14    15    1
     2    15    13    1
     3    13    11    1
     4     7    11    1
     5     7     8    1
     6     8     9    1
     7     8     2    1
     8     9    10    1
     9    10    11   am
    10     1     3   am
    11    17    18   ar
    12    18    22    1
    13    23    22    1
    14    23    24    1
    15    24    25    1
    16    25    26    1
    17    26    27    1
    18    27    23    1
    19    19    20   ar
    20    21    16   ar
    21     2     1   am
    22     3    16    1
    23    10    12    2
    24     1     4    2
    25    16    17   ar
    26    18    19   ar
    27    20    21   ar
    28     2     5    1
    29     3     6    1
