@<TRIPOS>MOLECULE
MolPort-007-723-442 6818294 ChemDiv-E157-5468 MCULE-5967525956 PubChem-22518006 ZINC000006818294 ZINC06818294
 23 24 0 0 0
SMALL
GASTEIGER

@<TRIPOS>ATOM
      1 C           9.1336   40.6759    8.9125 C.ar    1  UNL1        0.1893
      2 C           7.5960   42.3887    8.2794 C.ar    1  UNL1        0.2593
      3 N           8.2990   40.2953    7.9199 N.ar    1  UNL1       -0.1239
      4 N           7.4410   41.2511    7.5681 N.ar    1  UNL1       -0.1187
      5 S           8.8375   42.2556    9.4096 S.2     1  UNL1       -0.0102
      6 C          11.5447   39.9039    9.1448 C.2     1  UNL1        0.2271
      7 O          11.9613   40.7317    8.2904 O.2     1  UNL1       -0.2747
      8 N          10.1501   39.8413    9.4758 N.am    1  UNL1       -0.2627
      9 H           9.8710   39.1724   10.1420 H       1  UNL1        0.1568
     10 C          13.1115   39.5621   11.0787 C.3     1  UNL1        0.0096
     11 C          12.5305   38.9812    9.8003 C.3     1  UNL1        0.0769
     12 C          13.6578   38.6527    8.8406 C.3     1  UNL1        0.0096
     13 O           6.5245   44.1662    6.6014 O.2     1  UNL1       -0.1477
     14 O           7.2256   44.9609    8.8063 O.2     1  UNL1       -0.1477
     15 S           6.6020   43.8144    8.0606 S.O2    1  UNL1        0.1010
     16 C           3.9357   44.4199    8.2637 C.3     1  UNL1        0.1392
     17 N           4.9998   43.5086    8.6626 N.pl3   1  UNL1       -0.1870
     18 C           4.7241   42.4059    9.5500 C.ar    1  UNL1        0.0689
     19 C           5.4912   42.2158   10.7122 C.ar    1  UNL1        0.0161
     20 C           5.2291   41.1454   11.5720 C.ar    1  UNL1        0.0013
     21 C           4.1967   40.2513   11.2797 C.ar    1  UNL1        0.0001
     22 C           3.4260   40.4280   10.1284 C.ar    1  UNL1        0.0013
     23 C           3.6883   41.4988    9.2699 C.ar    1  UNL1        0.0161
@<TRIPOS>BOND
     1    10    11    1
     2    11    12    1
     3    11     6    1
     4     6     8   am
     5     1     5   ar
     6     2     5   ar
     7    16    17    1
     8    19    20   ar
     9    21    22   ar
    10    23    18   ar
    11     8     1    1
    12     3     4   ar
    13    17    18    1
    14    15     2    1
    15    15    17    1
    16     6     7    2
    17     1     3   ar
    18     2     4   ar
    19    18    19   ar
    20    20    21   ar
    21    22    23   ar
    22    15    13    2
    23    15    14    2
    24     8     9    1
@<TRIPOS>MOLECULE
MolPort-007-723-442 6818294 ChemDiv-E157-5468 MCULE-5967525956 PubChem-22518006 ZINC000006818294 ZINC06818294
 23 24 0 0 0
SMALL
GASTEIGER

@<TRIPOS>ATOM
      1 C          13.6593   42.0828    7.1850 C.ar    1  UNL1        0.1893
      2 C          11.5184   41.0912    7.5482 C.ar    1  UNL1        0.2593
      3 N          12.8280   42.2202    6.1283 N.ar    1  UNL1       -0.1239
      4 N          11.6343   41.6659    6.3315 N.ar    1  UNL1       -0.1187
      5 S          12.9316   41.2474    8.4510 S.2     1  UNL1       -0.0102
      6 C          15.4193   43.8527    6.7019 C.2     1  UNL1        0.2271
      7 O          14.5911   44.6162    6.1364 O.2     1  UNL1       -0.2747
      8 N          14.9977   42.5866    7.2289 N.am    1  UNL1       -0.2627
      9 H          15.6824   42.0208    7.6535 H       1  UNL1        0.1568
     10 C          17.7021   43.7702    5.6560 C.3     1  UNL1        0.0096
     11 C          16.8523   44.2872    6.8048 C.3     1  UNL1        0.0769
     12 C          17.4475   43.8201    8.1191 C.3     1  UNL1        0.0096
     13 O          10.4348   38.9033    8.6261 O.2     1  UNL1       -0.1477
     14 O           9.1342   40.1042    6.9378 O.2     1  UNL1       -0.1477
     15 S          10.0757   40.2641    8.0986 S.O2    1  UNL1        0.1010
     16 C           9.8658   41.0805   10.7076 C.3     1  UNL1        0.1392
     17 N           9.3179   41.1873    9.3621 N.pl3   1  UNL1       -0.1870
     18 C           8.1669   42.0169    9.1047 C.ar    1  UNL1        0.0689
     19 C           8.3263   43.3466    8.6784 C.ar    1  UNL1        0.0161
     20 C           7.2126   44.1545    8.4321 C.ar    1  UNL1        0.0013
     21 C           5.9253   43.6426    8.6099 C.ar    1  UNL1        0.0001
     22 C           5.7518   42.3230    9.0330 C.ar    1  UNL1        0.0013
     23 C           6.8657   41.5159    9.2781 C.ar    1  UNL1        0.0161
@<TRIPOS>BOND
     1    10    11    1
     2    11    12    1
     3    11     6    1
     4     6     8   am
     5     1     5   ar
     6     2     5   ar
     7    16    17    1
     8    19    20   ar
     9    21    22   ar
    10    23    18   ar
    11     8     1    1
    12     3     4   ar
    13    17    18    1
    14    15     2    1
    15    15    17    1
    16     6     7    2
    17     1     3   ar
    18     2     4   ar
    19    18    19   ar
    20    20    21   ar
    21    22    23   ar
    22    15    13    2
    23    15    14    2
    24     8     9    1
@<TRIPOS>MOLECULE
MolPort-007-723-442 6818294 ChemDiv-E157-5468 MCULE-5967525956 PubChem-22518006 ZINC000006818294 ZINC06818294
 23 24 0 0 0
SMALL
GASTEIGER

@<TRIPOS>ATOM
      1 C           7.4612   41.8945   10.5664 C.ar    1  UNL1        0.1893
      2 C           9.7248   41.1561   10.3936 C.ar    1  UNL1        0.2593
      3 N           8.0224   41.6276   11.7667 N.ar    1  UNL1       -0.1239
      4 N           9.2847   41.2148   11.6692 N.ar    1  UNL1       -0.1187
      5 S           8.5338   41.6246    9.2988 S.2     1  UNL1       -0.0102
      6 C           4.9408   41.6188   10.7530 C.2     1  UNL1        0.2271
      7 O           5.0380   40.4703   11.2632 O.2     1  UNL1       -0.2747
      8 N           6.1178   42.3537   10.3886 N.am    1  UNL1       -0.2627
      9 H           5.9914   43.2427    9.9850 H       1  UNL1        0.1568
     10 C           2.7252   42.1987   11.7858 C.3     1  UNL1        0.0096
     11 C           3.5747   42.1973   10.5257 C.3     1  UNL1        0.0769
     12 C           2.8548   41.4265    9.4360 C.3     1  UNL1        0.0096
     13 O          12.1401   40.3351   11.1781 O.2     1  UNL1       -0.1477
     14 O          12.0076   41.7299    9.1727 O.2     1  UNL1       -0.1477
     15 S          11.3339   40.6297    9.9443 S.O2    1  UNL1        0.1010
     16 C          10.4306   39.2495    7.7542 C.3     1  UNL1        0.1392
     17 N          11.2291   39.1927    8.9711 N.pl3   1  UNL1       -0.1870
     18 C          11.8863   37.9689    9.3582 C.ar    1  UNL1        0.0689
     19 C          13.2063   37.7082    8.9521 C.ar    1  UNL1        0.0161
     20 C          13.8446   36.5210    9.3222 C.ar    1  UNL1        0.0013
     21 C          13.1702   35.5794   10.1028 C.ar    1  UNL1        0.0001
     22 C          11.8582   35.8252   10.5138 C.ar    1  UNL1        0.0013
     23 C          11.2213   37.0126   10.1440 C.ar    1  UNL1        0.0161
@<TRIPOS>BOND
     1    10    11    1
     2    11    12    1
     3    11     6    1
     4     6     8   am
     5     1     5   ar
     6     2     5   ar
     7    16    17    1
     8    19    20   ar
     9    21    22   ar
    10    23    18   ar
    11     8     1    1
    12     3     4   ar
    13    17    18    1
    14    15     2    1
    15    15    17    1
    16     6     7    2
    17     1     3   ar
    18     2     4   ar
    19    18    19   ar
    20    20    21   ar
    21    22    23   ar
    22    15    13    2
    23    15    14    2
    24     8     9    1
@<TRIPOS>MOLECULE
MolPort-007-723-442 6818294 ChemDiv-E157-5468 MCULE-5967525956 PubChem-22518006 ZINC000006818294 ZINC06818294
 23 24 0 0 0
SMALL
GASTEIGER

@<TRIPOS>ATOM
      1 C           9.5150   41.3726    9.5531 C.ar    1  UNL1        0.1893
      2 C          11.5342   41.8215    8.3613 C.ar    1  UNL1        0.2593
      3 N          10.6237   41.1799   10.3017 N.ar    1  UNL1       -0.1239
      4 N          11.7495   41.4296    9.6358 N.ar    1  UNL1       -0.1187
      5 S           9.8917   41.8753    7.9925 S.2     1  UNL1       -0.0102
      6 C           6.9894   41.4721    9.2799 C.2     1  UNL1        0.2271
      7 O           7.0680   41.9536    8.1177 O.2     1  UNL1       -0.2747
      8 N           8.1788   41.1765   10.0256 N.am    1  UNL1       -0.2627
      9 H           8.0670   40.8103   10.9326 H       1  UNL1        0.1568
     10 C           4.5568   42.0994    9.2499 C.3     1  UNL1        0.0096
     11 C           5.6323   41.2236    9.8709 C.3     1  UNL1        0.0769
     12 C           5.6640   41.4544   11.3694 C.3     1  UNL1        0.0096
     13 O          12.8929   43.6864    7.0200 O.2     1  UNL1       -0.1477
     14 O          12.5200   41.5351    5.9165 O.2     1  UNL1       -0.1477
     15 S          12.8178   42.2002    7.2312 S.O2    1  UNL1        0.1010
     16 C          14.3422   40.3804    8.6031 C.3     1  UNL1        0.1392
     17 N          14.3366   41.6328    7.8593 N.pl3   1  UNL1       -0.1870
     18 C          15.5557   42.3816    7.6783 C.ar    1  UNL1        0.0689
     19 C          15.6648   43.3293    6.6462 C.ar    1  UNL1        0.0161
     20 C          16.8466   44.0536    6.4658 C.ar    1  UNL1        0.0013
     21 C          17.9343   43.8385    7.3151 C.ar    1  UNL1        0.0001
     22 C          17.8400   42.9000    8.3451 C.ar    1  UNL1        0.0013
     23 C          16.6580   42.1770    8.5252 C.ar    1  UNL1        0.0161
@<TRIPOS>BOND
     1    10    11    1
     2    11    12    1
     3    11     6    1
     4     6     8   am
     5     1     5   ar
     6     2     5   ar
     7    16    17    1
     8    19    20   ar
     9    21    22   ar
    10    23    18   ar
    11     8     1    1
    12     3     4   ar
    13    17    18    1
    14    15     2    1
    15    15    17    1
    16     6     7    2
    17     1     3   ar
    18     2     4   ar
    19    18    19   ar
    20    20    21   ar
    21    22    23   ar
    22    15    13    2
    23    15    14    2
    24     8     9    1
@<TRIPOS>MOLECULE
MolPort-007-723-442 6818294 ChemDiv-E157-5468 MCULE-5967525956 PubChem-22518006 ZINC000006818294 ZINC06818294
 23 24 0 0 0
SMALL
GASTEIGER

@<TRIPOS>ATOM
      1 C          13.7165   41.2386    8.2227 C.ar    1  UNL1        0.1893
      2 C          11.3525   40.9315    8.0953 C.ar    1  UNL1        0.2593
      3 N          13.3320   39.9753    8.5112 N.ar    1  UNL1       -0.1239
      4 N          12.0131   39.8053    8.4408 N.ar    1  UNL1       -0.1187
      5 S          12.4040   42.2254    7.8570 S.2     1  UNL1       -0.0102
      6 C          15.6387   42.6098    7.2803 C.2     1  UNL1        0.2271
      7 O          14.9319   43.0832    6.3502 O.2     1  UNL1       -0.2747
      8 N          15.0747   41.6883    8.2243 N.am    1  UNL1       -0.2627
      9 H          15.6681   41.3384    8.9276 H       1  UNL1        0.1568
     10 C          17.3810   43.7986    8.6452 C.3     1  UNL1        0.0096
     11 C          17.0795   43.0195    7.3758 C.3     1  UNL1        0.0769
     12 C          17.4669   43.8544    6.1705 C.3     1  UNL1        0.0096
     13 O           9.0481   39.6710    7.6220 O.2     1  UNL1       -0.1477
     14 O           9.2719   41.9723    6.8229 O.2     1  UNL1       -0.1477
     15 S           9.6102   41.0277    7.9422 S.O2    1  UNL1        0.1010
     16 C           9.8231   42.1619   10.4293 C.3     1  UNL1        0.1392
     17 N           8.9221   41.5959    9.4345 N.pl3   1  UNL1       -0.1870
     18 C           7.5089   41.4927    9.7020 C.ar    1  UNL1        0.0689
     19 C           7.0274   41.5320   11.0218 C.ar    1  UNL1        0.0161
     20 C           5.6585   41.4281   11.2845 C.ar    1  UNL1        0.0013
     21 C           4.7540   41.2829   10.2302 C.ar    1  UNL1        0.0001
     22 C           5.2182   41.2425    8.9136 C.ar    1  UNL1        0.0013
     23 C           6.5867   41.3473    8.6520 C.ar    1  UNL1        0.0161
@<TRIPOS>BOND
     1    10    11    1
     2    11    12    1
     3    11     6    1
     4     6     8   am
     5     1     5   ar
     6     2     5   ar
     7    16    17    1
     8    19    20   ar
     9    21    22   ar
    10    23    18   ar
    11     8     1    1
    12     3     4   ar
    13    17    18    1
    14    15     2    1
    15    15    17    1
    16     6     7    2
    17     1     3   ar
    18     2     4   ar
    19    18    19   ar
    20    20    21   ar
    21    22    23   ar
    22    15    13    2
    23    15    14    2
    24     8     9    1
@<TRIPOS>MOLECULE
MolPort-007-723-442 6818294 ChemDiv-E157-5468 MCULE-5967525956 PubChem-22518006 ZINC000006818294 ZINC06818294
 23 24 0 0 0
SMALL
GASTEIGER

@<TRIPOS>ATOM
      1 C          13.7361   41.9588    7.1221 C.ar    1  UNL1        0.1893
      2 C          11.5236   41.0678    7.2213 C.ar    1  UNL1        0.2593
      3 N          12.9975   42.2574    6.0304 N.ar    1  UNL1       -0.1239
      4 N          11.7638   41.7592    6.0861 N.ar    1  UNL1       -0.1187
      5 S          12.8691   41.0411    8.2340 S.2     1  UNL1       -0.0102
      6 C          15.6154   43.6652    6.9807 C.2     1  UNL1        0.2271
      7 O          14.8706   44.5403    6.4627 O.2     1  UNL1       -0.2747
      8 N          15.0921   42.3721    7.3161 N.am    1  UNL1       -0.2627
      9 H          15.7141   41.7187    7.7101 H       1  UNL1        0.1568
     10 C          17.9323   43.7487    6.0129 C.3     1  UNL1        0.0096
     11 C          17.0577   43.9970    7.2306 C.3     1  UNL1        0.0769
     12 C          17.5852   43.1892    8.4006 C.3     1  UNL1        0.0096
     13 O          10.2335   39.0906    8.4659 O.2     1  UNL1       -0.1477
     14 O           9.3880   39.8058    6.2846 O.2     1  UNL1       -0.1477
     15 S          10.0006   40.2775    7.5737 S.O2    1  UNL1        0.1010
     16 C           8.2091   42.3528    7.5478 C.3     1  UNL1        0.1392
     17 N           8.9328   41.3939    8.3715 N.pl3   1  UNL1       -0.1870
     18 C           8.7785   41.3978    9.8052 C.ar    1  UNL1        0.0689
     19 C           7.5077   41.5491   10.3860 C.ar    1  UNL1        0.0161
     20 C           7.3555   41.5575   11.7755 C.ar    1  UNL1        0.0013
     21 C           8.4728   41.4153   12.6014 C.ar    1  UNL1        0.0001
     22 C           9.7418   41.2638   12.0381 C.ar    1  UNL1        0.0013
     23 C           9.8928   41.2547   10.6491 C.ar    1  UNL1        0.0161
@<TRIPOS>BOND
     1    10    11    1
     2    11    12    1
     3    11     6    1
     4     6     8   am
     5     1     5   ar
     6     2     5   ar
     7    16    17    1
     8    19    20   ar
     9    21    22   ar
    10    23    18   ar
    11     8     1    1
    12     3     4   ar
    13    17    18    1
    14    15     2    1
    15    15    17    1
    16     6     7    2
    17     1     3   ar
    18     2     4   ar
    19    18    19   ar
    20    20    21   ar
    21    22    23   ar
    22    15    13    2
    23    15    14    2
    24     8     9    1
@<TRIPOS>MOLECULE
MolPort-007-723-442 6818294 ChemDiv-E157-5468 MCULE-5967525956 PubChem-22518006 ZINC000006818294 ZINC06818294
 23 24 0 0 0
SMALL
GASTEIGER

@<TRIPOS>ATOM
      1 C          12.2446   41.2549    9.2117 C.ar    1  UNL1        0.1893
      2 C          10.1021   41.4244   10.2510 C.ar    1  UNL1        0.2593
      3 N          11.8468   40.1010    9.7921 N.ar    1  UNL1       -0.1239
      4 N          10.6520   40.1968   10.3724 N.ar    1  UNL1       -0.1187
      5 S          11.1022   42.4760    9.3963 S.2     1  UNL1       -0.0102
      6 C          13.7663   42.4639    7.5728 C.2     1  UNL1        0.2271
      7 O          12.8846   43.3160    7.2808 O.2     1  UNL1       -0.2747
      8 N          13.4857   41.4237    8.5202 N.am    1  UNL1       -0.2627
      9 H          14.2026   40.7760    8.7091 H       1  UNL1        0.1568
     10 C          16.2581   42.4439    7.8930 C.3     1  UNL1        0.0096
     11 C          15.1079   42.5518    6.9056 C.3     1  UNL1        0.0769
     12 C          15.2261   43.8543    6.1379 C.3     1  UNL1        0.0096
     13 O           8.5198   43.3346   11.2360 O.2     1  UNL1       -0.1477
     14 O           8.3367   41.0944   12.2017 O.2     1  UNL1       -0.1477
     15 S           8.5474   41.8639   10.9277 S.O2    1  UNL1        0.1010
     16 C           7.6760   40.9466    8.4952 C.3     1  UNL1        0.1392
     17 N           7.2874   41.4931    9.7884 N.pl3   1  UNL1       -0.1870
     18 C           5.8990   41.7378   10.0917 C.ar    1  UNL1        0.0689
     19 C           5.1469   42.6377    9.3173 C.ar    1  UNL1        0.0161
     20 C           3.8021   42.8800    9.6114 C.ar    1  UNL1        0.0013
     21 C           3.1929   42.2257   10.6845 C.ar    1  UNL1        0.0001
     22 C           3.9280   41.3285   11.4626 C.ar    1  UNL1        0.0013
     23 C           5.2721   41.0864   11.1672 C.ar    1  UNL1        0.0161
@<TRIPOS>BOND
     1    10    11    1
     2    11    12    1
     3    11     6    1
     4     6     8   am
     5     1     5   ar
     6     2     5   ar
     7    16    17    1
     8    19    20   ar
     9    21    22   ar
    10    23    18   ar
    11     8     1    1
    12     3     4   ar
    13    17    18    1
    14    15     2    1
    15    15    17    1
    16     6     7    2
    17     1     3   ar
    18     2     4   ar
    19    18    19   ar
    20    20    21   ar
    21    22    23   ar
    22    15    13    2
    23    15    14    2
    24     8     9    1
@<TRIPOS>MOLECULE
MolPort-007-723-442 6818294 ChemDiv-E157-5468 MCULE-5967525956 PubChem-22518006 ZINC000006818294 ZINC06818294
 23 24 0 0 0
SMALL
GASTEIGER

@<TRIPOS>ATOM
      1 C          14.1135   41.2405    8.2935 C.ar    1  UNL1        0.1893
      2 C          11.8253   40.5632    8.2274 C.ar    1  UNL1        0.2593
      3 N          13.7382   40.5415    9.3877 N.ar    1  UNL1       -0.1239
      4 N          12.4614   40.1649    9.3503 N.ar    1  UNL1       -0.1187
      5 S          12.8462   41.4261    7.2029 S.2     1  UNL1       -0.0102
      6 C          15.7295   42.9958    7.4156 C.2     1  UNL1        0.2271
      7 O          14.8022   43.7130    6.9524 O.2     1  UNL1       -0.2747
      8 N          15.4293   41.7609    8.0813 N.am    1  UNL1       -0.2627
      9 H          16.1873   41.2305    8.4181 H       1  UNL1        0.1568
     10 C          17.5014   43.7486    5.8014 C.3     1  UNL1        0.0096
     11 C          17.1498   43.4518    7.2498 C.3     1  UNL1        0.0769
     12 C          18.1024   42.4044    7.7930 C.3     1  UNL1        0.0096
     13 O           9.3665   40.1753    9.1900 O.2     1  UNL1       -0.1477
     14 O          10.0228   38.9113    7.2011 O.2     1  UNL1       -0.1477
     15 S          10.1357   40.2372    7.9002 S.O2    1  UNL1        0.1010
     16 C           9.9010   41.5559    5.5079 C.3     1  UNL1        0.1392
     17 N           9.4790   41.4994    6.9009 N.pl3   1  UNL1       -0.1870
     18 C           8.5640   42.4812    7.4284 C.ar    1  UNL1        0.0689
     19 C           8.8495   43.1496    8.6313 C.ar    1  UNL1        0.0161
     20 C           7.9625   44.0987    9.1472 C.ar    1  UNL1        0.0013
     21 C           6.7783   44.3906    8.4667 C.ar    1  UNL1        0.0001
     22 C           6.4817   43.7344    7.2700 C.ar    1  UNL1        0.0013
     23 C           7.3693   42.7863    6.7547 C.ar    1  UNL1        0.0161
@<TRIPOS>BOND
     1    10    11    1
     2    11    12    1
     3    11     6    1
     4     6     8   am
     5     1     5   ar
     6     2     5   ar
     7    16    17    1
     8    19    20   ar
     9    21    22   ar
    10    23    18   ar
    11     8     1    1
    12     3     4   ar
    13    17    18    1
    14    15     2    1
    15    15    17    1
    16     6     7    2
    17     1     3   ar
    18     2     4   ar
    19    18    19   ar
    20    20    21   ar
    21    22    23   ar
    22    15    13    2
    23    15    14    2
    24     8     9    1
@<TRIPOS>MOLECULE
MolPort-007-723-442 6818294 ChemDiv-E157-5468 MCULE-5967525956 PubChem-22518006 ZINC000006818294 ZINC06818294
 23 24 0 0 0
SMALL
GASTEIGER

@<TRIPOS>ATOM
      1 C          13.9082   41.6866    7.6338 C.ar    1  UNL1        0.1893
      2 C          12.3445   40.1401    8.5623 C.ar    1  UNL1        0.2593
      3 N          14.5022   40.6659    8.2910 N.ar    1  UNL1       -0.1239
      4 N          13.6291   39.8043    8.8094 N.ar    1  UNL1       -0.1187
      5 S          12.2308   41.5617    7.6663 S.2     1  UNL1       -0.0102
      6 C          15.9203   43.2150    7.3535 C.2     1  UNL1        0.2271
      7 O          16.5340   42.6942    8.3236 O.2     1  UNL1       -0.2747
      8 N          14.6151   42.7477    6.9845 N.am    1  UNL1       -0.2627
      9 H          14.1714   43.1914    6.2259 H       1  UNL1        0.1568
     10 C          15.5729   45.1936    5.8448 C.3     1  UNL1        0.0096
     11 C          16.5747   44.3360    6.6000 C.3     1  UNL1        0.0769
     12 C          17.5980   43.7845    5.6261 C.3     1  UNL1        0.0096
     13 O          10.5933   39.6580   10.5178 O.2     1  UNL1       -0.1477
     14 O          11.3484   37.7596    9.1723 O.2     1  UNL1       -0.1477
     15 S          10.9712   39.2141    9.1324 S.O2    1  UNL1        0.1010
     16 C           9.2081   38.3376    7.2244 C.3     1  UNL1        0.1392
     17 N           9.6199   39.4538    8.0649 N.pl3   1  UNL1       -0.1870
     18 C           8.9355   40.7206    7.9858 C.ar    1  UNL1        0.0689
     19 C           8.5505   41.2474    6.7410 C.ar    1  UNL1        0.0161
     20 C           7.8906   42.4770    6.6608 C.ar    1  UNL1        0.0013
     21 C           7.6082   43.1954    7.8248 C.ar    1  UNL1        0.0001
     22 C           7.9846   42.6839    9.0687 C.ar    1  UNL1        0.0013
     23 C           8.6435   41.4543    9.1479 C.ar    1  UNL1        0.0161
@<TRIPOS>BOND
     1    10    11    1
     2    11    12    1
     3    11     6    1
     4     6     8   am
     5     1     5   ar
     6     2     5   ar
     7    16    17    1
     8    19    20   ar
     9    21    22   ar
    10    23    18   ar
    11     8     1    1
    12     3     4   ar
    13    17    18    1
    14    15     2    1
    15    15    17    1
    16     6     7    2
    17     1     3   ar
    18     2     4   ar
    19    18    19   ar
    20    20    21   ar
    21    22    23   ar
    22    15    13    2
    23    15    14    2
    24     8     9    1
@<TRIPOS>MOLECULE
MolPort-007-723-442 6818294 ChemDiv-E157-5468 MCULE-5967525956 PubChem-22518006 ZINC000006818294 ZINC06818294
 23 24 0 0 0
SMALL
GASTEIGER

@<TRIPOS>ATOM
      1 C           6.2178   40.4226    7.2234 C.ar    1  UNL1        0.1893
      2 C           8.3337   40.0732    6.1748 C.ar    1  UNL1        0.2593
      3 N           6.1604   39.5423    6.1994 N.ar    1  UNL1       -0.1239
      4 N           7.3410   39.3488    5.6145 N.ar    1  UNL1       -0.1187
      5 S           7.7755   41.0141    7.4553 S.2     1  UNL1       -0.0102
      6 C           5.1578   41.2196    9.3924 C.2     1  UNL1        0.2271
      7 O           6.2632   41.2532    9.9972 O.2     1  UNL1       -0.2747
      8 N           5.0932   40.8078    8.0196 N.am    1  UNL1       -0.2627
      9 H           4.2064   40.7887    7.5924 H       1  UNL1        0.1568
     10 C           3.8124   40.9365   11.4952 C.3     1  UNL1        0.0096
     11 C           3.9131   41.6081   10.1357 C.3     1  UNL1        0.0769
     12 C           2.6850   41.2656    9.3146 C.3     1  UNL1        0.0096
     13 O          10.2975   41.3124    4.8592 O.2     1  UNL1       -0.1477
     14 O          10.1741   38.8752    4.6886 O.2     1  UNL1       -0.1477
     15 S           9.9921   40.0476    5.6115 S.O2    1  UNL1        0.1010
     16 C          10.7292   38.9630    8.0194 C.3     1  UNL1        0.1392
     17 N          11.0694   39.9139    6.9697 N.pl3   1  UNL1       -0.1870
     18 C          12.2527   40.7310    7.0783 C.ar    1  UNL1        0.0689
     19 C          12.4508   41.8193    6.2114 C.ar    1  UNL1        0.0161
     20 C          13.5987   42.6105    6.3115 C.ar    1  UNL1        0.0013
     21 C          14.5632   42.3226    7.2797 C.ar    1  UNL1        0.0001
     22 C          14.3795   41.2444    8.1482 C.ar    1  UNL1        0.0013
     23 C          13.2313   40.4545    8.0478 C.ar    1  UNL1        0.0161
@<TRIPOS>BOND
     1    10    11    1
     2    11    12    1
     3    11     6    1
     4     6     8   am
     5     1     5   ar
     6     2     5   ar
     7    16    17    1
     8    19    20   ar
     9    21    22   ar
    10    23    18   ar
    11     8     1    1
    12     3     4   ar
    13    17    18    1
    14    15     2    1
    15    15    17    1
    16     6     7    2
    17     1     3   ar
    18     2     4   ar
    19    18    19   ar
    20    20    21   ar
    21    22    23   ar
    22    15    13    2
    23    15    14    2
    24     8     9    1
