@<TRIPOS>MOLECULE
MolPort-020-298-669 MCULE-3947586328 PubChem-110269814
 24 26 0 0 0
SMALL
GASTEIGER

@<TRIPOS>ATOM
      1 C          11.9830   39.9026    8.5582 C.ar    1  UNL1        0.0614
      2 C          11.8753   41.4451    6.7445 C.ar    1  UNL1        0.1339
      3 C          10.4778   41.3405    6.7248 C.ar    1  UNL1        0.0345
      4 C           9.8355   40.5038    7.6376 C.ar    1  UNL1        0.0041
      5 C          10.5871   39.7787    8.5614 C.ar    1  UNL1        0.0149
      6 N          12.5844   40.7262    7.6570 N.ar    1  UNL1       -0.2348
      7 C          13.8586   39.1165   11.7908 C.3     1  UNL1        0.0178
      8 C          12.9953   39.9198   10.8322 C.3     1  UNL1        0.0087
      9 C          12.8289   39.1450    9.5315 C.3     1  UNL1        0.0563
     10 C          14.2015   38.8172    8.9287 C.3     1  UNL1        0.0781
     11 C          15.2085   38.8047   11.1371 C.3     1  UNL1        0.0722
     12 N          15.0667   38.0826    9.8644 N.3     1  UNL1       -0.2702
     13 C          14.5303   36.7452   10.1078 C.3     1  UNL1        0.1042
     14 C          14.5799   35.9169    8.8354 C.3     1  UNL1        0.1544
     15 O          14.0645   34.6436    9.0778 O.3     1  UNL1       -0.3805
     16 H          14.5938   34.2056    9.7626 H       1  UNL1        0.2105
     17 N          12.5851   42.2909    5.8282 N.pl3   1  UNL1       -0.2680
     18 H          12.2147   42.3542    4.9183 H       1  UNL1        0.1565
     19 C          13.7717   43.0547    6.0841 C.ar    1  UNL1        0.2218
     20 C          14.9828   45.0656    5.7820 C.ar    1  UNL1        0.1034
     21 C          16.0332   44.5633    6.5473 C.ar    1  UNL1        0.0414
     22 C          15.9118   43.2786    7.0729 C.ar    1  UNL1        0.1034
     23 N          13.8768   44.3069    5.5650 N.ar    1  UNL1       -0.2120
     24 N          14.7901   42.5507    6.8339 N.ar    1  UNL1       -0.2120
@<TRIPOS>BOND
     1     7     8    1
     2     8     9    1
     3     9    10    1
     4     9     1    1
     5    10    12    1
     6    11    12    1
     7    11     7    1
     8    13    12    1
     9    13    14    1
    10    14    15    1
    11     2     6   ar
    12     2    17    1
    13     3     4   ar
    14     5     1   ar
    15    19    24   ar
    16    20    23   ar
    17    21    22   ar
    18    17    19    1
    19     1     6   ar
    20     2     3   ar
    21     4     5   ar
    22    19    23   ar
    23    20    21   ar
    24    22    24   ar
    25    17    18    1
    26    15    16    1
@<TRIPOS>MOLECULE
MolPort-020-298-669 MCULE-3947586328 PubChem-110269814
 24 26 0 0 0
SMALL
GASTEIGER

@<TRIPOS>ATOM
      1 C          12.1658   39.8720    8.6746 C.ar    1  UNL1        0.0614
      2 C          12.0446   41.6116    7.0500 C.ar    1  UNL1        0.1339
      3 C          10.7279   41.8956    7.4370 C.ar    1  UNL1        0.0345
      4 C          10.1328   41.1525    8.4565 C.ar    1  UNL1        0.0041
      5 C          10.8508   40.1342    9.0821 C.ar    1  UNL1        0.0149
      6 N          12.7227   40.6121    7.6776 N.ar    1  UNL1       -0.2348
      7 C          13.0369   36.4222   10.0624 C.3     1  UNL1        0.0178
      8 C          12.1815   37.4922    9.4045 C.3     1  UNL1        0.0087
      9 C          12.9736   38.7903    9.3181 C.3     1  UNL1        0.0563
     10 C          13.4504   39.2158   10.7133 C.3     1  UNL1        0.0781
     11 C          13.4969   36.9013   11.4429 C.3     1  UNL1        0.0722
     12 N          14.2382   38.1695   11.3828 N.3     1  UNL1       -0.2702
     13 C          15.5096   37.9706   10.6903 C.3     1  UNL1        0.1042
     14 C          16.3728   39.2156   10.8036 C.3     1  UNL1        0.1544
     15 O          17.2620   39.2757    9.7306 O.3     1  UNL1       -0.3805
     16 H          17.8330   38.4915    9.7395 H       1  UNL1        0.2105
     17 N          12.7035   42.3454    6.0078 N.pl3   1  UNL1       -0.2680
     18 H          12.3129   42.2681    5.1074 H       1  UNL1        0.1565
     19 C          13.8651   43.1784    6.1255 C.ar    1  UNL1        0.2218
     20 C          16.1058   43.4286    6.8455 C.ar    1  UNL1        0.1034
     21 C          16.1241   44.7402    6.3758 C.ar    1  UNL1        0.0414
     22 C          14.9711   45.2430    5.7761 C.ar    1  UNL1        0.1034
     23 N          14.9831   42.6750    6.7129 N.ar    1  UNL1       -0.2120
     24 N          13.8681   44.4583    5.6618 N.ar    1  UNL1       -0.2120
@<TRIPOS>BOND
     1     7     8    1
     2     8     9    1
     3     9    10    1
     4     9     1    1
     5    10    12    1
     6    11    12    1
     7    11     7    1
     8    13    12    1
     9    13    14    1
    10    14    15    1
    11     2     6   ar
    12     2    17    1
    13     3     4   ar
    14     5     1   ar
    15    19    24   ar
    16    20    23   ar
    17    21    22   ar
    18    17    19    1
    19     1     6   ar
    20     2     3   ar
    21     4     5   ar
    22    19    23   ar
    23    20    21   ar
    24    22    24   ar
    25    17    18    1
    26    15    16    1
@<TRIPOS>MOLECULE
MolPort-020-298-669 MCULE-3947586328 PubChem-110269814
 24 26 0 0 0
SMALL
GASTEIGER

@<TRIPOS>ATOM
      1 C          12.5006   40.4204    7.9585 C.ar    1  UNL1        0.0614
      2 C          13.1375   42.4317    6.8497 C.ar    1  UNL1        0.1339
      3 C          12.2405   42.1545    5.8092 C.ar    1  UNL1        0.0345
      4 C          11.4689   40.9933    5.8542 C.ar    1  UNL1        0.0041
      5 C          11.5955   40.1181    6.9321 C.ar    1  UNL1        0.0149
      6 N          13.2410   41.5601    7.8900 N.ar    1  UNL1       -0.2348
      7 C          13.5838   39.2445   11.4269 C.3     1  UNL1        0.0178
      8 C          13.4362   40.2004   10.2547 C.3     1  UNL1        0.0087
      9 C          12.6685   39.5112    9.1341 C.3     1  UNL1        0.0563
     10 C          13.3748   38.2109    8.7274 C.3     1  UNL1        0.0781
     11 C          14.2804   37.9605   10.9654 C.3     1  UNL1        0.0722
     12 N          13.5693   37.2966    9.8632 N.3     1  UNL1       -0.2702
     13 C          12.2814   36.7917   10.3342 C.3     1  UNL1        0.1042
     14 C          12.3530   35.2910   10.5592 C.3     1  UNL1        0.1544
     15 O          11.3065   34.8849   11.3872 O.3     1  UNL1       -0.3805
     16 H          11.3763   35.3379   12.2421 H       1  UNL1        0.2105
     17 N          13.9541   43.6115    6.8526 N.pl3   1  UNL1       -0.2680
     18 H          13.4756   44.4717    6.8733 H       1  UNL1        0.1565
     19 C          15.3863   43.6832    6.8289 C.ar    1  UNL1        0.2218
     20 C          17.3686   44.0644    5.5933 C.ar    1  UNL1        0.1034
     21 C          18.1382   43.8329    6.7316 C.ar    1  UNL1        0.0414
     22 C          17.4815   43.5236    7.9210 C.ar    1  UNL1        0.1034
     23 N          16.0139   43.9860    5.6615 N.ar    1  UNL1       -0.2120
     24 N          16.1251   43.4545    7.9492 N.ar    1  UNL1       -0.2120
@<TRIPOS>BOND
     1     7     8    1
     2     8     9    1
     3     9    10    1
     4     9     1    1
     5    10    12    1
     6    11    12    1
     7    11     7    1
     8    13    12    1
     9    13    14    1
    10    14    15    1
    11     2     6   ar
    12     2    17    1
    13     3     4   ar
    14     5     1   ar
    15    19    24   ar
    16    20    23   ar
    17    21    22   ar
    18    17    19    1
    19     1     6   ar
    20     2     3   ar
    21     4     5   ar
    22    19    23   ar
    23    20    21   ar
    24    22    24   ar
    25    17    18    1
    26    15    16    1
@<TRIPOS>MOLECULE
MolPort-020-298-669 MCULE-3947586328 PubChem-110269814
 24 26 0 0 0
SMALL
GASTEIGER

@<TRIPOS>ATOM
      1 C          11.6667   40.7107    9.9984 C.ar    1  UNL1        0.0614
      2 C          13.4921   40.9141    8.4796 C.ar    1  UNL1        0.1339
      3 C          14.3396   40.2775    9.3965 C.ar    1  UNL1        0.0345
      4 C          13.8338   39.8564   10.6264 C.ar    1  UNL1        0.0041
      5 C          12.4911   40.0715   10.9343 C.ar    1  UNL1        0.0149
      6 N          12.1855   41.1112    8.8058 N.ar    1  UNL1       -0.2348
      7 C           7.9577   41.3314    9.3321 C.3     1  UNL1        0.0178
      8 C           9.4180   41.0783    8.9961 C.3     1  UNL1        0.0087
      9 C          10.2204   40.9612   10.2854 C.3     1  UNL1        0.0563
     10 C          10.0398   42.2226   11.1404 C.3     1  UNL1        0.0781
     11 C           7.8343   42.5906   10.1959 C.3     1  UNL1        0.0722
     12 N           8.6265   42.5081   11.4316 N.3     1  UNL1       -0.2702
     13 C           8.0722   41.4805   12.3106 C.3     1  UNL1        0.1042
     14 C           8.9915   41.2492   13.4976 C.3     1  UNL1        0.1544
     15 O           8.6125   42.0716   14.5586 O.3     1  UNL1       -0.3805
     16 H           8.6739   43.0004   14.2857 H       1  UNL1        0.2105
     17 N          13.9613   41.3663    7.2012 N.pl3   1  UNL1       -0.2680
     18 H          13.7980   40.7640    6.4398 H       1  UNL1        0.1565
     19 C          14.6405   42.5940    6.9039 C.ar    1  UNL1        0.2218
     20 C          14.7099   44.6174    5.6781 C.ar    1  UNL1        0.1034
     21 C          15.9082   44.9668    6.2974 C.ar    1  UNL1        0.0414
     22 C          16.4499   44.0861    7.2315 C.ar    1  UNL1        0.1034
     23 N          14.1006   43.4439    5.9904 N.ar    1  UNL1       -0.2120
     24 N          15.8108   42.9220    7.5171 N.ar    1  UNL1       -0.2120
@<TRIPOS>BOND
     1     7     8    1
     2     8     9    1
     3     9    10    1
     4     9     1    1
     5    10    12    1
     6    11    12    1
     7    11     7    1
     8    13    12    1
     9    13    14    1
    10    14    15    1
    11     2     6   ar
    12     2    17    1
    13     3     4   ar
    14     5     1   ar
    15    19    24   ar
    16    20    23   ar
    17    21    22   ar
    18    17    19    1
    19     1     6   ar
    20     2     3   ar
    21     4     5   ar
    22    19    23   ar
    23    20    21   ar
    24    22    24   ar
    25    17    18    1
    26    15    16    1
@<TRIPOS>MOLECULE
MolPort-020-298-669 MCULE-3947586328 PubChem-110269814
 24 26 0 0 0
SMALL
GASTEIGER

@<TRIPOS>ATOM
      1 C          11.5333   41.1527   10.1186 C.ar    1  UNL1        0.0614
      2 C          13.5327   40.9844    8.8324 C.ar    1  UNL1        0.1339
      3 C          14.0316   40.0169    9.7150 C.ar    1  UNL1        0.0345
      4 C          13.2634   39.6198   10.8096 C.ar    1  UNL1        0.0041
      5 C          12.0069   40.1873   11.0173 C.ar    1  UNL1        0.0149
      6 N          12.3029   41.5219    9.0588 N.ar    1  UNL1       -0.2348
      7 C           8.1495   41.9361   11.7067 C.3     1  UNL1        0.0178
      8 C           9.5060   41.2673   11.5586 C.3     1  UNL1        0.0087
      9 C          10.1914   41.7872   10.3015 C.3     1  UNL1        0.0563
     10 C           9.3001   41.5526    9.0745 C.3     1  UNL1        0.0781
     11 C           7.3064   41.6837   10.4527 C.3     1  UNL1        0.0722
     12 N           7.9654   42.1523    9.2249 N.3     1  UNL1       -0.2702
     13 C           8.0629   43.6103    9.2376 C.3     1  UNL1        0.1042
     14 C           6.9927   44.2188    8.3476 C.3     1  UNL1        0.1544
     15 O           5.9502   44.7148    9.1304 O.3     1  UNL1       -0.3805
     16 H           5.5607   43.9914    9.6461 H       1  UNL1        0.2105
     17 N          14.2815   41.4279    7.6916 N.pl3   1  UNL1       -0.2680
     18 H          13.9479   41.1370    6.8122 H       1  UNL1        0.1565
     19 C          15.4596   42.2458    7.6837 C.ar    1  UNL1        0.2218
     20 C          16.5229   44.2482    7.0042 C.ar    1  UNL1        0.1034
     21 C          17.6989   43.8547    7.6395 C.ar    1  UNL1        0.0414
     22 C          17.7147   42.6268    8.2980 C.ar    1  UNL1        0.1034
     23 N          15.4301   43.4415    7.0373 N.ar    1  UNL1       -0.2120
     24 N          16.6016   41.8481    8.3089 N.ar    1  UNL1       -0.2120
@<TRIPOS>BOND
     1     7     8    1
     2     8     9    1
     3     9    10    1
     4     9     1    1
     5    10    12    1
     6    11    12    1
     7    11     7    1
     8    13    12    1
     9    13    14    1
    10    14    15    1
    11     2     6   ar
    12     2    17    1
    13     3     4   ar
    14     5     1   ar
    15    19    24   ar
    16    20    23   ar
    17    21    22   ar
    18    17    19    1
    19     1     6   ar
    20     2     3   ar
    21     4     5   ar
    22    19    23   ar
    23    20    21   ar
    24    22    24   ar
    25    17    18    1
    26    15    16    1
@<TRIPOS>MOLECULE
MolPort-020-298-669 MCULE-3947586328 PubChem-110269814
 24 26 0 0 0
SMALL
GASTEIGER

@<TRIPOS>ATOM
      1 C          11.9321   41.0898   10.0137 C.ar    1  UNL1        0.0614
      2 C          14.0991   40.7512    9.0810 C.ar    1  UNL1        0.1339
      3 C          14.3847   39.7951   10.0651 C.ar    1  UNL1        0.0345
      4 C          13.4250   39.4903   11.0303 C.ar    1  UNL1        0.0041
      5 C          12.1904   40.1379   11.0093 C.ar    1  UNL1        0.0149
      6 N          12.8859   41.3682    9.0837 N.ar    1  UNL1       -0.2348
      7 C           9.4725   44.0070    9.8520 C.3     1  UNL1        0.0178
      8 C          10.8251   43.3172    9.9148 C.3     1  UNL1        0.0087
      9 C          10.6217   41.8081    9.9519 C.3     1  UNL1        0.0563
     10 C           9.7261   41.4214   11.1365 C.3     1  UNL1        0.0781
     11 C           8.6145   43.5773   11.0463 C.3     1  UNL1        0.0722
     12 N           8.4319   42.1202   11.1157 N.3     1  UNL1       -0.2702
     13 C           7.6277   41.6647    9.9837 C.3     1  UNL1        0.1042
     14 C           6.1827   41.4662   10.4086 C.3     1  UNL1        0.1544
     15 O           6.0370   41.7855   11.7586 O.3     1  UNL1       -0.3805
     16 H           6.6066   41.2083   12.2907 H       1  UNL1        0.2105
     17 N          15.0503   41.1014    8.0655 N.pl3   1  UNL1       -0.2680
     18 H          15.7234   40.4175    7.8454 H       1  UNL1        0.1565
     19 C          15.1343   42.3320    7.3338 C.ar    1  UNL1        0.2218
     20 C          16.2731   44.3672    6.9298 C.ar    1  UNL1        0.1034
     21 C          15.3397   44.7110    5.9542 C.ar    1  UNL1        0.0414
     22 C          14.2992   43.8217    5.6933 C.ar    1  UNL1        0.1034
     23 N          16.1548   43.1905    7.5987 N.ar    1  UNL1       -0.2120
     24 N          14.2148   42.6546    6.3832 N.ar    1  UNL1       -0.2120
@<TRIPOS>BOND
     1     7     8    1
     2     8     9    1
     3     9    10    1
     4     9     1    1
     5    10    12    1
     6    11    12    1
     7    11     7    1
     8    13    12    1
     9    13    14    1
    10    14    15    1
    11     2     6   ar
    12     2    17    1
    13     3     4   ar
    14     5     1   ar
    15    19    24   ar
    16    20    23   ar
    17    21    22   ar
    18    17    19    1
    19     1     6   ar
    20     2     3   ar
    21     4     5   ar
    22    19    23   ar
    23    20    21   ar
    24    22    24   ar
    25    17    18    1
    26    15    16    1
@<TRIPOS>MOLECULE
MolPort-020-298-669 MCULE-3947586328 PubChem-110269814
 24 26 0 0 0
SMALL
GASTEIGER

@<TRIPOS>ATOM
      1 C           9.6841   41.8753    8.4978 C.ar    1  UNL1        0.0614
      2 C          11.9731   41.6432    7.8756 C.ar    1  UNL1        0.1339
      3 C          12.3052   41.2880    9.1900 C.ar    1  UNL1        0.0345
      4 C          11.3066   41.2289   10.1621 C.ar    1  UNL1        0.0041
      5 C           9.9874   41.5230    9.8199 C.ar    1  UNL1        0.0149
      6 N          10.6774   41.9252    7.5688 N.ar    1  UNL1       -0.2348
      7 C           6.7311   42.6239    6.1945 C.3     1  UNL1        0.0178
      8 C           8.1668   42.2963    6.5698 C.3     1  UNL1        0.0087
      9 C           8.2831   42.1977    8.0854 C.3     1  UNL1        0.0563
     10 C           7.8024   43.4992    8.7411 C.3     1  UNL1        0.0781
     11 C           6.2971   43.9211    6.8844 C.3     1  UNL1        0.0722
     12 N           6.4307   43.8553    8.3470 N.3     1  UNL1       -0.2702
     13 C           5.4795   42.8883    8.8908 C.3     1  UNL1        0.1042
     14 C           4.1463   43.5601    9.1722 C.3     1  UNL1        0.1544
     15 O           3.1011   42.7084    8.8147 O.3     1  UNL1       -0.3805
     16 H           3.1600   42.5038    7.8684 H       1  UNL1        0.2105
     17 N          12.9613   41.7188    6.8380 N.pl3   1  UNL1       -0.2680
     18 H          12.9375   41.0039    6.1616 H       1  UNL1        0.1565
     19 C          13.9796   42.7150    6.6719 C.ar    1  UNL1        0.2218
     20 C          16.1910   43.4346    7.1120 C.ar    1  UNL1        0.1034
     21 C          15.9708   44.6007    6.3818 C.ar    1  UNL1        0.0414
     22 C          14.7181   44.7899    5.8017 C.ar    1  UNL1        0.1034
     23 N          15.1973   42.5174    7.2435 N.ar    1  UNL1       -0.2120
     24 N          13.7498   43.8495    5.9556 N.ar    1  UNL1       -0.2120
@<TRIPOS>BOND
     1     7     8    1
     2     8     9    1
     3     9    10    1
     4     9     1    1
     5    10    12    1
     6    11    12    1
     7    11     7    1
     8    13    12    1
     9    13    14    1
    10    14    15    1
    11     2     6   ar
    12     2    17    1
    13     3     4   ar
    14     5     1   ar
    15    19    24   ar
    16    20    23   ar
    17    21    22   ar
    18    17    19    1
    19     1     6   ar
    20     2     3   ar
    21     4     5   ar
    22    19    23   ar
    23    20    21   ar
    24    22    24   ar
    25    17    18    1
    26    15    16    1
@<TRIPOS>MOLECULE
MolPort-020-298-669 MCULE-3947586328 PubChem-110269814
 24 26 0 0 0
SMALL
GASTEIGER

@<TRIPOS>ATOM
      1 C          12.1495   40.8628    9.9494 C.ar    1  UNL1        0.0614
      2 C          14.4567   40.4161    9.5520 C.ar    1  UNL1        0.1339
      3 C          14.4945   39.5654   10.6652 C.ar    1  UNL1        0.0345
      4 C          13.3398   39.3683   11.4225 C.ar    1  UNL1        0.0041
      5 C          12.1583   40.0178   11.0674 C.ar    1  UNL1        0.0149
      6 N          13.2899   41.0374    9.2276 N.ar    1  UNL1       -0.2348
      7 C           9.0258   43.0414   10.2349 C.3     1  UNL1        0.0178
      8 C          10.2843   42.3293   10.7022 C.3     1  UNL1        0.0087
      9 C          10.9049   41.5788    9.5310 C.3     1  UNL1        0.0563
     10 C           9.8866   40.6037    8.9250 C.3     1  UNL1        0.0781
     11 C           8.0508   42.0278    9.6274 C.3     1  UNL1        0.0722
     12 N           8.6425   41.2720    8.5138 N.3     1  UNL1       -0.2702
     13 C           8.8957   42.1651    7.3850 C.3     1  UNL1        0.1042
     14 C           9.3560   41.3695    6.1755 C.3     1  UNL1        0.1544
     15 O          10.0007   42.2127    5.2704 O.3     1  UNL1       -0.3805
     16 H           9.3868   42.9053    4.9800 H       1  UNL1        0.2105
     17 N          15.6152   40.6532    8.7394 N.pl3   1  UNL1       -0.2680
     18 H          16.1507   39.8615    8.5035 H       1  UNL1        0.1565
     19 C          16.0838   41.9098    8.2310 C.ar    1  UNL1        0.2218
     20 C          17.6976   43.6398    8.2983 C.ar    1  UNL1        0.1034
     21 C          17.0255   44.3239    7.2875 C.ar    1  UNL1        0.0414
     22 C          15.8647   43.7568    6.7653 C.ar    1  UNL1        0.1034
     23 N          17.2177   42.4515    8.7497 N.ar    1  UNL1       -0.2120
     24 N          15.4164   42.5668    7.2430 N.ar    1  UNL1       -0.2120
@<TRIPOS>BOND
     1     7     8    1
     2     8     9    1
     3     9    10    1
     4     9     1    1
     5    10    12    1
     6    11    12    1
     7    11     7    1
     8    13    12    1
     9    13    14    1
    10    14    15    1
    11     2     6   ar
    12     2    17    1
    13     3     4   ar
    14     5     1   ar
    15    19    24   ar
    16    20    23   ar
    17    21    22   ar
    18    17    19    1
    19     1     6   ar
    20     2     3   ar
    21     4     5   ar
    22    19    23   ar
    23    20    21   ar
    24    22    24   ar
    25    17    18    1
    26    15    16    1
@<TRIPOS>MOLECULE
MolPort-020-298-669 MCULE-3947586328 PubChem-110269814
 24 26 0 0 0
SMALL
GASTEIGER

@<TRIPOS>ATOM
      1 C          12.7720   40.0129    8.5744 C.ar    1  UNL1        0.0614
      2 C          15.0012   40.3865    9.3304 C.ar    1  UNL1        0.1339
      3 C          14.7190   39.7150   10.5276 C.ar    1  UNL1        0.0345
      4 C          13.4443   39.1899   10.7403 C.ar    1  UNL1        0.0041
      5 C          12.4618   39.3367    9.7620 C.ar    1  UNL1        0.0149
      6 N          14.0236   40.5153    8.3922 N.ar    1  UNL1       -0.2348
      7 C          11.1133   41.4236    5.4368 C.3     1  UNL1        0.0178
      8 C          12.1766   41.2734    6.5121 C.3     1  UNL1        0.0087
      9 C          11.7501   40.1930    7.4974 C.3     1  UNL1        0.0563
     10 C          10.3764   40.5292    8.0932 C.3     1  UNL1        0.0781
     11 C           9.7622   41.7443    6.0838 C.3     1  UNL1        0.0722
     12 N           9.3476   40.7268    7.0606 N.3     1  UNL1       -0.2702
     13 C           9.0663   39.4660    6.3772 C.3     1  UNL1        0.1042
     14 C           9.1182   38.3094    7.3608 C.3     1  UNL1        0.1544
     15 O           8.1032   37.3967    7.0739 O.3     1  UNL1       -0.3805
     16 H           7.2421   37.8372    7.1469 H       1  UNL1        0.2105
     17 N          16.2953   40.9449    9.0613 N.pl3   1  UNL1       -0.2680
     18 H          17.0644   40.4666    9.4471 H       1  UNL1        0.1565
     19 C          16.5984   42.1191    8.2955 C.ar    1  UNL1        0.2218
     20 C          15.9215   43.6988    6.6683 C.ar    1  UNL1        0.1034
     21 C          17.1337   44.3731    6.7996 C.ar    1  UNL1        0.0414
     22 C          18.0692   43.8791    7.7065 C.ar    1  UNL1        0.1034
     23 N          15.6765   42.5900    7.4143 N.ar    1  UNL1       -0.2120
     24 N          17.7873   42.7674    8.4346 N.ar    1  UNL1       -0.2120
@<TRIPOS>BOND
     1     7     8    1
     2     8     9    1
     3     9    10    1
     4     9     1    1
     5    10    12    1
     6    11    12    1
     7    11     7    1
     8    13    12    1
     9    13    14    1
    10    14    15    1
    11     2     6   ar
    12     2    17    1
    13     3     4   ar
    14     5     1   ar
    15    19    24   ar
    16    20    23   ar
    17    21    22   ar
    18    17    19    1
    19     1     6   ar
    20     2     3   ar
    21     4     5   ar
    22    19    23   ar
    23    20    21   ar
    24    22    24   ar
    25    17    18    1
    26    15    16    1
@<TRIPOS>MOLECULE
MolPort-020-298-669 MCULE-3947586328 PubChem-110269814
 24 26 0 0 0
SMALL
GASTEIGER

@<TRIPOS>ATOM
      1 C          11.8080   40.3972    8.5995 C.ar    1  UNL1        0.0614
      2 C          14.1028   40.4063    9.2430 C.ar    1  UNL1        0.1339
      3 C          13.7498   40.0294   10.5459 C.ar    1  UNL1        0.0345
      4 C          12.4065   39.8368   10.8685 C.ar    1  UNL1        0.0041
      5 C          11.4262   40.0202    9.8942 C.ar    1  UNL1        0.0149
      6 N          13.1256   40.5784    8.3114 N.ar    1  UNL1       -0.2348
      7 C           8.6995   41.7609    6.8493 C.3     1  UNL1        0.0178
      8 C           9.7096   41.5791    7.9700 C.3     1  UNL1        0.0087
      9 C          10.7909   40.6040    7.5227 C.3     1  UNL1        0.0563
     10 C          10.1613   39.2708    7.0974 C.3     1  UNL1        0.0781
     11 C           8.1126   40.4021    6.4538 C.3     1  UNL1        0.0722
     12 N           9.1447   39.4374    6.0473 N.3     1  UNL1       -0.2702
     13 C           9.7702   39.8733    4.8005 C.3     1  UNL1        0.1042
     14 C           9.7101   38.7644    3.7640 C.3     1  UNL1        0.1544
     15 O           8.7577   39.0737    2.7929 O.3     1  UNL1       -0.3805
     16 H           7.8873   39.1648    3.2113 H       1  UNL1        0.2105
     17 N          15.4690   40.6171    8.8587 N.pl3   1  UNL1       -0.2680
     18 H          16.0746   39.8482    8.9653 H       1  UNL1        0.1565
     19 C          16.0549   41.8178    8.3372 C.ar    1  UNL1        0.2218
     20 C          17.8285   43.3843    8.3838 C.ar    1  UNL1        0.1034
     21 C          17.2220   44.1209    7.3684 C.ar    1  UNL1        0.0414
     22 C          16.0100   43.6639    6.8548 C.ar    1  UNL1        0.1034
     23 N          17.2378   42.2521    8.8477 N.ar    1  UNL1       -0.2120
     24 N          15.4506   42.5271    7.3449 N.ar    1  UNL1       -0.2120
@<TRIPOS>BOND
     1     7     8    1
     2     8     9    1
     3     9    10    1
     4     9     1    1
     5    10    12    1
     6    11    12    1
     7    11     7    1
     8    13    12    1
     9    13    14    1
    10    14    15    1
    11     2     6   ar
    12     2    17    1
    13     3     4   ar
    14     5     1   ar
    15    19    24   ar
    16    20    23   ar
    17    21    22   ar
    18    17    19    1
    19     1     6   ar
    20     2     3   ar
    21     4     5   ar
    22    19    23   ar
    23    20    21   ar
    24    22    24   ar
    25    17    18    1
    26    15    16    1
