@<TRIPOS>MOLECULE
MolPort-000-122-710 5059970 MCULE-4388863312 PubChem-6492870 ZINC000005059970 ZINC05059970
 27 29 0 0 0
SMALL
GASTEIGER

@<TRIPOS>ATOM
      1 C          10.7443   39.7636    7.3478 C.2     1  UNL1        0.1844
      2 O          10.1899   38.8149    6.7306 O.2     1  UNL1       -0.2904
      3 C           9.0602   41.3829   10.9504 C.ar    1  UNL1        0.1520
      4 C          10.2859   40.6993   10.9811 C.ar    1  UNL1        0.0383
      5 C          10.8223   40.1521    9.8157 C.ar    1  UNL1        0.0061
      6 C          10.1505   40.2864    8.5944 C.ar    1  UNL1        0.0370
      7 C           8.9194   40.9533    8.5642 C.ar    1  UNL1        0.0206
      8 C           8.3548   41.4786    9.7314 C.ar    1  UNL1        0.0848
      9 C           6.8847   43.4023    8.9446 C.2     1  UNL1        0.2267
     10 C           5.4963   43.8677    8.6929 C.3     1  UNL1        0.0949
     11 O           7.8546   44.1284    8.6004 O.2     1  UNL1       -0.2748
     12 N           7.0995   42.1631    9.6268 N.am    1  UNL1       -0.2815
     13 H           6.3204   41.7457   10.0605 H       1  UNL1        0.1549
     14 C           8.8095   41.4988   13.4128 C.3     1  UNL1        0.2525
     15 O           8.5557   41.9929   12.1046 O.3     1  UNL1       -0.4702
     16 C          11.9853   40.3735    6.7755 C.3     1  UNL1        0.1340
     17 S          11.6288   41.9820    5.9900 S.3     1  UNL1       -0.0657
     18 C          13.2948   42.5986    6.2061 C.ar    1  UNL1        0.2106
     19 C          15.3656   42.5284    7.3311 C.ar    1  UNL1        0.0763
     20 C          15.7840   43.6532    6.5978 C.ar    1  UNL1        0.0941
     21 C          17.1664   44.2224    6.7441 C.3     1  UNL1        0.0489
     22 C          17.8074   43.8321    8.0735 C.3     1  UNL1        0.0068
     23 C          17.6878   42.3278    8.2778 C.3     1  UNL1        0.0067
     24 C          16.2175   41.9407    8.4211 C.3     1  UNL1        0.0472
     25 N          14.1177   42.0361    7.1268 N.ar    1  UNL1       -0.2230
     26 N          14.9410   44.1747    5.6712 N.ar    1  UNL1       -0.1492
     27 N          13.7238   43.6646    5.4819 N.ar    1  UNL1       -0.1221
@<TRIPOS>BOND
     1    14    15    1
     2     3    15    1
     3     4     5   ar
     4     6     7   ar
     5     6     1    1
     6     8    12    1
     7     8     3   ar
     8    10     9    1
     9    16     1    1
    10    16    17    1
    11    18    17    1
    12    18    27   ar
    13    19    25   ar
    14    20    26   ar
    15    21    20    1
    16    21    22    1
    17    22    23    1
    18    23    24    1
    19    24    19    1
    20    12     9   am
    21     3     4   ar
    22     5     6   ar
    23     7     8   ar
    24     9    11    2
    25     1     2    2
    26    18    25   ar
    27    19    20   ar
    28    26    27   ar
    29    12    13    1
@<TRIPOS>MOLECULE
MolPort-000-122-710 5059970 MCULE-4388863312 PubChem-6492870 ZINC000005059970 ZINC05059970
 27 29 0 0 0
SMALL
GASTEIGER

@<TRIPOS>ATOM
      1 C           9.7984   41.2468    8.2846 C.2     1  UNL1        0.1844
      2 O           9.7846   39.9865    8.2855 O.2     1  UNL1       -0.2904
      3 C           6.1464   43.4163    8.9116 C.ar    1  UNL1        0.1520
      4 C           7.2934   44.0730    8.4386 C.ar    1  UNL1        0.0383
      5 C           8.4868   43.3744    8.2573 C.ar    1  UNL1        0.0061
      6 C           8.5553   42.0034    8.5343 C.ar    1  UNL1        0.0370
      7 C           7.4171   41.3495    9.0222 C.ar    1  UNL1        0.0206
      8 C           6.2230   42.0454    9.2391 C.ar    1  UNL1        0.0848
      9 C           4.9053   40.8712   11.0737 C.2     1  UNL1        0.2267
     10 C           3.5794   40.3513   11.4971 C.3     1  UNL1        0.0949
     11 O           5.8625   40.8699   11.8923 O.2     1  UNL1       -0.2748
     12 N           5.0913   41.3116    9.7252 N.am    1  UNL1       -0.2815
     13 H           4.3833   41.0926    9.0771 H       1  UNL1        0.1549
     14 C           4.1992   44.5692    7.9021 C.3     1  UNL1        0.2525
     15 O           4.9306   44.1001    9.0268 O.3     1  UNL1       -0.4702
     16 C          11.0814   41.9573    7.9871 C.3     1  UNL1        0.1340
     17 S          11.5639   41.7450    6.2397 S.3     1  UNL1       -0.0657
     18 C          13.1836   42.4708    6.4682 C.ar    1  UNL1        0.2106
     19 C          15.3148   42.4263    7.4758 C.ar    1  UNL1        0.0763
     20 C          15.5968   43.6767    6.8974 C.ar    1  UNL1        0.0941
     21 C          16.9342   44.3404    7.0628 C.3     1  UNL1        0.0489
     22 C          17.6807   43.8236    8.2901 C.3     1  UNL1        0.0068
     23 C          17.6964   42.3009    8.2765 C.3     1  UNL1        0.0067
     24 C          16.2734   41.7677    8.4280 C.3     1  UNL1        0.0472
     25 N          14.1016   41.8586    7.2582 N.ar    1  UNL1       -0.2230
     26 N          14.6620   44.2475    6.0964 N.ar    1  UNL1       -0.1492
     27 N          13.4816   43.6630    5.8897 N.ar    1  UNL1       -0.1221
@<TRIPOS>BOND
     1    14    15    1
     2     3    15    1
     3     4     5   ar
     4     6     7   ar
     5     6     1    1
     6     8    12    1
     7     8     3   ar
     8    10     9    1
     9    16     1    1
    10    16    17    1
    11    18    17    1
    12    18    27   ar
    13    19    25   ar
    14    20    26   ar
    15    21    20    1
    16    21    22    1
    17    22    23    1
    18    23    24    1
    19    24    19    1
    20    12     9   am
    21     3     4   ar
    22     5     6   ar
    23     7     8   ar
    24     9    11    2
    25     1     2    2
    26    18    25   ar
    27    19    20   ar
    28    26    27   ar
    29    12    13    1
@<TRIPOS>MOLECULE
MolPort-000-122-710 5059970 MCULE-4388863312 PubChem-6492870 ZINC000005059970 ZINC05059970
 27 29 0 0 0
SMALL
GASTEIGER

@<TRIPOS>ATOM
      1 C           9.0474   41.2490    5.8411 C.2     1  UNL1        0.1844
      2 O           8.6293   40.3060    5.1169 O.2     1  UNL1       -0.2904
      3 C           6.2261   43.4258    8.2367 C.ar    1  UNL1        0.1520
      4 C           6.3362   43.6774    6.8601 C.ar    1  UNL1        0.0383
      5 C           7.2688   42.9881    6.0853 C.ar    1  UNL1        0.0061
      6 C           8.1025   42.0256    6.6681 C.ar    1  UNL1        0.0370
      7 C           8.0061   41.7848    8.0443 C.ar    1  UNL1        0.0206
      8 C           7.0974   42.4923    8.8385 C.ar    1  UNL1        0.0848
      9 C           8.1631   41.8645   11.0635 C.2     1  UNL1        0.2267
     10 C           7.9974   41.8215   12.5394 C.3     1  UNL1        0.0949
     11 O           9.2768   41.5683   10.5552 O.2     1  UNL1       -0.2748
     12 N           7.0396   42.1850   10.2376 N.am    1  UNL1       -0.2815
     13 H           6.1531   42.1954   10.6657 H       1  UNL1        0.1549
     14 C           3.8819   43.6579    9.0053 C.3     1  UNL1        0.2525
     15 O           5.2435   44.0651    9.0014 O.3     1  UNL1       -0.4702
     16 C          10.5041   41.5910    5.8160 C.3     1  UNL1        0.1340
     17 S          11.4558   40.5089    6.9362 S.3     1  UNL1       -0.0657
     18 C          12.9155   41.5435    6.8990 C.ar    1  UNL1        0.2106
     19 C          15.0889   42.0327    7.6712 C.ar    1  UNL1        0.0763
     20 C          15.0730   43.2188    6.9157 C.ar    1  UNL1        0.0941
     21 C          16.2638   44.1324    6.8541 C.3     1  UNL1        0.0489
     22 C          17.1941   43.9401    8.0492 C.3     1  UNL1        0.0068
     23 C          17.5060   42.4597    8.2225 C.3     1  UNL1        0.0067
     24 C          16.2318   41.7022    8.5897 C.3     1  UNL1        0.0472
     25 N          13.9965   41.2278    7.6561 N.ar    1  UNL1       -0.2230
     26 N          13.9827   43.4896    6.1547 N.ar    1  UNL1       -0.1492
     27 N          12.9266   42.6758    6.1490 N.ar    1  UNL1       -0.1221
@<TRIPOS>BOND
     1    14    15    1
     2     3    15    1
     3     4     5   ar
     4     6     7   ar
     5     6     1    1
     6     8    12    1
     7     8     3   ar
     8    10     9    1
     9    16     1    1
    10    16    17    1
    11    18    17    1
    12    18    27   ar
    13    19    25   ar
    14    20    26   ar
    15    21    20    1
    16    21    22    1
    17    22    23    1
    18    23    24    1
    19    24    19    1
    20    12     9   am
    21     3     4   ar
    22     5     6   ar
    23     7     8   ar
    24     9    11    2
    25     1     2    2
    26    18    25   ar
    27    19    20   ar
    28    26    27   ar
    29    12    13    1
@<TRIPOS>MOLECULE
MolPort-000-122-710 5059970 MCULE-4388863312 PubChem-6492870 ZINC000005059970 ZINC05059970
 27 29 0 0 0
SMALL
GASTEIGER

@<TRIPOS>ATOM
      1 C          11.0195   41.9157    9.9270 C.2     1  UNL1        0.1844
      2 O          11.4645   43.0028    9.4700 O.2     1  UNL1       -0.2904
      3 C           6.9248   41.7158   11.2039 C.ar    1  UNL1        0.1520
      4 C           7.9548   41.2515   12.0370 C.ar    1  UNL1        0.0383
      5 C           9.2831   41.2938   11.6138 C.ar    1  UNL1        0.0061
      6 C           9.6101   41.8110   10.3542 C.ar    1  UNL1        0.0370
      7 C           8.5829   42.2594    9.5146 C.ar    1  UNL1        0.0206
      8 C           7.2439   42.1926    9.9141 C.ar    1  UNL1        0.0848
      9 C           6.1439   44.0290    8.5362 C.2     1  UNL1        0.2267
     10 C           5.2236   44.3413    7.4123 C.3     1  UNL1        0.0949
     11 O           6.7858   44.9606    9.0898 O.2     1  UNL1       -0.2748
     12 N           6.2436   42.6833    9.0120 N.am    1  UNL1       -0.2815
     13 H           5.5692   42.0408    8.6932 H       1  UNL1        0.1549
     14 C           4.6728   40.6975   11.3807 C.3     1  UNL1        0.2525
     15 O           5.5999   41.7393   11.6546 O.3     1  UNL1       -0.4702
     16 C          11.9509   40.7527   10.0658 C.3     1  UNL1        0.1340
     17 S          12.3553   40.0328    8.4380 S.3     1  UNL1       -0.0657
     18 C          13.8984   40.9263    8.2861 C.ar    1  UNL1        0.2106
     19 C          15.1932   42.5978    7.2427 C.ar    1  UNL1        0.0763
     20 C          16.3081   42.1783    7.9901 C.ar    1  UNL1        0.0941
     21 C          17.6320   42.8819    7.8971 C.3     1  UNL1        0.0489
     22 C          17.7727   43.6650    6.5941 C.3     1  UNL1        0.0068
     23 C          16.5438   44.5403    6.3874 C.3     1  UNL1        0.0067
     24 C          15.3108   43.6617    6.1874 C.3     1  UNL1        0.0472
     25 N          14.0129   41.9467    7.3989 N.ar    1  UNL1       -0.2230
     26 N          16.1491   41.1686    8.8826 N.ar    1  UNL1       -0.1492
     27 N          14.9752   40.5529    9.0250 N.ar    1  UNL1       -0.1221
@<TRIPOS>BOND
     1    14    15    1
     2     3    15    1
     3     4     5   ar
     4     6     7   ar
     5     6     1    1
     6     8    12    1
     7     8     3   ar
     8    10     9    1
     9    16     1    1
    10    16    17    1
    11    18    17    1
    12    18    27   ar
    13    19    25   ar
    14    20    26   ar
    15    21    20    1
    16    21    22    1
    17    22    23    1
    18    23    24    1
    19    24    19    1
    20    12     9   am
    21     3     4   ar
    22     5     6   ar
    23     7     8   ar
    24     9    11    2
    25     1     2    2
    26    18    25   ar
    27    19    20   ar
    28    26    27   ar
    29    12    13    1
@<TRIPOS>MOLECULE
MolPort-000-122-710 5059970 MCULE-4388863312 PubChem-6492870 ZINC000005059970 ZINC05059970
 27 29 0 0 0
SMALL
GASTEIGER

@<TRIPOS>ATOM
      1 C           8.6951   41.2838    6.0760 C.2     1  UNL1        0.1844
      2 O           8.3165   40.3788    5.2846 O.2     1  UNL1       -0.2904
      3 C           5.7253   43.5499    8.1930 C.ar    1  UNL1        0.1520
      4 C           6.2732   44.0361    6.9955 C.ar    1  UNL1        0.0383
      5 C           7.2552   43.3123    6.3194 C.ar    1  UNL1        0.0061
      6 C           7.7015   42.0831    6.8203 C.ar    1  UNL1        0.0370
      7 C           7.1686   41.6040    8.0234 C.ar    1  UNL1        0.0206
      8 C           6.2066   42.3355    8.7281 C.ar    1  UNL1        0.0848
      9 C           4.4650   41.0539   10.0717 C.2     1  UNL1        0.2267
     10 C           4.1787   40.3148   11.3284 C.3     1  UNL1        0.0949
     11 O           3.6026   41.0749    9.1539 O.2     1  UNL1       -0.2748
     12 N           5.6916   41.7795    9.9450 N.am    1  UNL1       -0.2815
     13 H           6.2265   41.9077   10.7615 H       1  UNL1        0.1549
     14 C           3.5975   44.8183    8.1341 C.3     1  UNL1        0.2525
     15 O           4.6905   44.2400    8.8348 O.3     1  UNL1       -0.4702
     16 C          10.1595   41.5587    6.2152 C.3     1  UNL1        0.1340
     17 S          10.9969   40.2248    7.1376 S.3     1  UNL1       -0.0657
     18 C          12.5475   41.1101    7.2575 C.ar    1  UNL1        0.2106
     19 C          13.9724   42.8373    6.5188 C.ar    1  UNL1        0.0763
     20 C          14.9766   42.3538    7.3764 C.ar    1  UNL1        0.0941
     21 C          16.3019   43.0480    7.5116 C.3     1  UNL1        0.0489
     22 C          16.6167   43.9199    6.2986 C.3     1  UNL1        0.0068
     23 C          15.4277   44.8208    5.9929 C.3     1  UNL1        0.0067
     24 C          14.2315   43.9720    5.5677 C.3     1  UNL1        0.0472
     25 N          12.7810   42.1895    6.4689 N.ar    1  UNL1       -0.2230
     26 N          14.6984   41.2852    8.1649 N.ar    1  UNL1       -0.1492
     27 N          13.5152   40.6737    8.1048 N.ar    1  UNL1       -0.1221
@<TRIPOS>BOND
     1    14    15    1
     2     3    15    1
     3     4     5   ar
     4     6     7   ar
     5     6     1    1
     6     8    12    1
     7     8     3   ar
     8    10     9    1
     9    16     1    1
    10    16    17    1
    11    18    17    1
    12    18    27   ar
    13    19    25   ar
    14    20    26   ar
    15    21    20    1
    16    21    22    1
    17    22    23    1
    18    23    24    1
    19    24    19    1
    20    12     9   am
    21     3     4   ar
    22     5     6   ar
    23     7     8   ar
    24     9    11    2
    25     1     2    2
    26    18    25   ar
    27    19    20   ar
    28    26    27   ar
    29    12    13    1
@<TRIPOS>MOLECULE
MolPort-000-122-710 5059970 MCULE-4388863312 PubChem-6492870 ZINC000005059970 ZINC05059970
 27 29 0 0 0
SMALL
GASTEIGER

@<TRIPOS>ATOM
      1 C           9.8043   41.5118    7.8921 C.2     1  UNL1        0.1844
      2 O           9.0369   42.0505    7.0498 O.2     1  UNL1       -0.2904
      3 C           8.6934   41.4199   12.0387 C.ar    1  UNL1        0.1520
      4 C           9.9853   41.0439   11.6384 C.ar    1  UNL1        0.0383
      5 C          10.3400   41.0504   10.2895 C.ar    1  UNL1        0.0061
      6 C           9.4147   41.4432    9.3146 C.ar    1  UNL1        0.0370
      7 C           8.1202   41.8026    9.7099 C.ar    1  UNL1        0.0206
      8 C           7.7419   41.7695   11.0564 C.ar    1  UNL1        0.0848
      9 C           5.2101   41.5743   10.8753 C.2     1  UNL1        0.2267
     10 C           3.9022   41.9028   11.4989 C.3     1  UNL1        0.0949
     11 O           5.2448   40.8208    9.8666 O.2     1  UNL1       -0.2748
     12 N           6.4058   42.1650   11.3935 N.am    1  UNL1       -0.2815
     13 H           6.3024   42.9046   12.0350 H       1  UNL1        0.1549
     14 C           9.2576   41.1085   14.4314 C.3     1  UNL1        0.2525
     15 O           8.3580   41.4816   13.3962 O.3     1  UNL1       -0.4702
     16 C          11.1269   40.9831    7.4334 C.3     1  UNL1        0.1340
     17 S          12.3792   42.3090    7.3621 S.3     1  UNL1       -0.0657
     18 C          13.5968   41.3809    8.2887 C.ar    1  UNL1        0.2106
     19 C          14.1338   39.9248   10.0637 C.ar    1  UNL1        0.0763
     20 C          15.4978   40.0843    9.7608 C.ar    1  UNL1        0.0941
     21 C          16.5660   39.3402   10.5103 C.3     1  UNL1        0.0489
     22 C          16.0851   38.8799   11.8842 C.3     1  UNL1        0.0068
     23 C          14.7516   38.1578   11.7445 C.3     1  UNL1        0.0067
     24 C          13.6825   39.1351   11.2603 C.3     1  UNL1        0.0472
     25 N          13.2127   40.5939    9.3253 N.ar    1  UNL1       -0.2230
     26 N          15.8417   40.8625    8.7037 N.ar    1  UNL1       -0.1492
     27 N          14.9157   41.5002    7.9871 N.ar    1  UNL1       -0.1221
@<TRIPOS>BOND
     1    14    15    1
     2     3    15    1
     3     4     5   ar
     4     6     7   ar
     5     6     1    1
     6     8    12    1
     7     8     3   ar
     8    10     9    1
     9    16     1    1
    10    16    17    1
    11    18    17    1
    12    18    27   ar
    13    19    25   ar
    14    20    26   ar
    15    21    20    1
    16    21    22    1
    17    22    23    1
    18    23    24    1
    19    24    19    1
    20    12     9   am
    21     3     4   ar
    22     5     6   ar
    23     7     8   ar
    24     9    11    2
    25     1     2    2
    26    18    25   ar
    27    19    20   ar
    28    26    27   ar
    29    12    13    1
@<TRIPOS>MOLECULE
MolPort-000-122-710 5059970 MCULE-4388863312 PubChem-6492870 ZINC000005059970 ZINC05059970
 27 29 0 0 0
SMALL
GASTEIGER

@<TRIPOS>ATOM
      1 C          11.8545   40.5551    9.5825 C.2     1  UNL1        0.1844
      2 O          12.0808   41.3036    8.5940 O.2     1  UNL1       -0.2904
      3 C          13.8683   36.7702    9.8193 C.ar    1  UNL1        0.1520
      4 C          12.4670   36.8297    9.7627 C.ar    1  UNL1        0.0383
      5 C          11.8107   38.0592    9.7099 C.ar    1  UNL1        0.0061
      6 C          12.5416   39.2537    9.7014 C.ar    1  UNL1        0.0370
      7 C          13.9389   39.1974    9.7747 C.ar    1  UNL1        0.0206
      8 C          14.6080   37.9718    9.8606 C.ar    1  UNL1        0.0848
      9 C          16.8308   37.5631   11.0322 C.2     1  UNL1        0.2267
     10 C          18.2966   37.3864   10.8650 C.3     1  UNL1        0.0949
     11 O          16.3101   37.3886   12.1657 O.2     1  UNL1       -0.2748
     12 N          16.0404   37.9856    9.9169 N.am    1  UNL1       -0.2815
     13 H          16.5201   38.3131    9.1220 H       1  UNL1        0.1549
     14 C          15.0250   34.9442    8.6078 C.3     1  UNL1        0.2525
     15 O          14.5303   35.5371    9.8009 O.3     1  UNL1       -0.4702
     16 C          10.8523   40.9890   10.6057 C.3     1  UNL1        0.1340
     17 S          10.1279   42.6080   10.1752 S.3     1  UNL1       -0.0657
     18 C           8.4513   42.0933   10.5310 C.ar    1  UNL1        0.2106
     19 C           6.1879   41.9321    9.8907 C.ar    1  UNL1        0.0763
     20 C           5.8815   41.4157   11.1624 C.ar    1  UNL1        0.0941
     21 C           4.4908   40.9768   11.5230 C.3     1  UNL1        0.0489
     22 C           3.4364   41.6311   10.6338 C.3     1  UNL1        0.0068
     23 C           3.8236   41.4620    9.1708 C.3     1  UNL1        0.0067
     24 C           5.1119   42.2306    8.8846 C.3     1  UNL1        0.0472
     25 N           7.4706   42.2750    9.6109 N.ar    1  UNL1       -0.2230
     26 N           6.8922   41.2286   12.0482 N.ar    1  UNL1       -0.1492
     27 N           8.1464   41.5633   11.7439 N.ar    1  UNL1       -0.1221
@<TRIPOS>BOND
     1    14    15    1
     2     3    15    1
     3     4     5   ar
     4     6     7   ar
     5     6     1    1
     6     8    12    1
     7     8     3   ar
     8    10     9    1
     9    16     1    1
    10    16    17    1
    11    18    17    1
    12    18    27   ar
    13    19    25   ar
    14    20    26   ar
    15    21    20    1
    16    21    22    1
    17    22    23    1
    18    23    24    1
    19    24    19    1
    20    12     9   am
    21     3     4   ar
    22     5     6   ar
    23     7     8   ar
    24     9    11    2
    25     1     2    2
    26    18    25   ar
    27    19    20   ar
    28    26    27   ar
    29    12    13    1
@<TRIPOS>MOLECULE
MolPort-000-122-710 5059970 MCULE-4388863312 PubChem-6492870 ZINC000005059970 ZINC05059970
 27 29 0 0 0
SMALL
GASTEIGER

@<TRIPOS>ATOM
      1 C           8.8322   41.8773    7.2178 C.2     1  UNL1        0.1844
      2 O           8.4864   42.0950    6.0255 O.2     1  UNL1       -0.2904
      3 C           5.8775   41.7151   10.3292 C.ar    1  UNL1        0.1520
      4 C           5.5184   42.0858    9.0238 C.ar    1  UNL1        0.0383
      5 C           6.4813   42.1621    8.0177 C.ar    1  UNL1        0.0061
      6 C           7.8204   41.8588    8.2930 C.ar    1  UNL1        0.0370
      7 C           8.1840   41.5050    9.5983 C.ar    1  UNL1        0.0206
      8 C           7.2335   41.4561   10.6236 C.ar    1  UNL1        0.0848
      9 C           8.9635   41.3351   12.4874 C.2     1  UNL1        0.2267
     10 C           9.1974   41.1123   13.9376 C.3     1  UNL1        0.0949
     11 O           9.9189   41.7041   11.7543 O.2     1  UNL1       -0.2748
     12 N           7.6709   41.0712   11.9335 N.am    1  UNL1       -0.2815
     13 H           7.0284   40.5848   12.4990 H       1  UNL1        0.1549
     14 C           4.0103   40.4643   11.3726 C.3     1  UNL1        0.2525
     15 O           4.9020   41.5698   11.3223 O.3     1  UNL1       -0.4702
     16 C          10.2830   41.6799    7.5272 C.3     1  UNL1        0.1340
     17 S          11.2463   41.3732    6.0075 S.3     1  UNL1       -0.0657
     18 C          12.8279   41.5891    6.8164 C.ar    1  UNL1        0.2106
     19 C          14.9051   42.6937    6.9723 C.ar    1  UNL1        0.0763
     20 C          15.2855   41.8007    7.9899 C.ar    1  UNL1        0.0941
     21 C          16.6044   41.9251    8.6981 C.3     1  UNL1        0.0489
     22 C          17.6266   42.7004    7.8706 C.3     1  UNL1        0.0068
     23 C          17.0102   44.0068    7.3885 C.3     1  UNL1        0.0067
     24 C          15.8640   43.7126    6.4231 C.3     1  UNL1        0.0472
     25 N          13.6842   42.5545    6.3966 N.ar    1  UNL1       -0.2230
     26 N          14.3941   40.8622    8.3973 N.ar    1  UNL1       -0.1492
     27 N          13.1960   40.7541    7.8224 N.ar    1  UNL1       -0.1221
@<TRIPOS>BOND
     1    14    15    1
     2     3    15    1
     3     4     5   ar
     4     6     7   ar
     5     6     1    1
     6     8    12    1
     7     8     3   ar
     8    10     9    1
     9    16     1    1
    10    16    17    1
    11    18    17    1
    12    18    27   ar
    13    19    25   ar
    14    20    26   ar
    15    21    20    1
    16    21    22    1
    17    22    23    1
    18    23    24    1
    19    24    19    1
    20    12     9   am
    21     3     4   ar
    22     5     6   ar
    23     7     8   ar
    24     9    11    2
    25     1     2    2
    26    18    25   ar
    27    19    20   ar
    28    26    27   ar
    29    12    13    1
@<TRIPOS>MOLECULE
MolPort-000-122-710 5059970 MCULE-4388863312 PubChem-6492870 ZINC000005059970 ZINC05059970
 27 29 0 0 0
SMALL
GASTEIGER

@<TRIPOS>ATOM
      1 C          12.4589   38.8264   10.3321 C.2     1  UNL1        0.1844
      2 O          12.5613   37.5923   10.5664 O.2     1  UNL1       -0.2904
      3 C           9.0385   40.2851    8.1851 C.ar    1  UNL1        0.1520
      4 C           9.6804   39.1026    7.7846 C.ar    1  UNL1        0.0383
      5 C          10.8059   38.6405    8.4665 C.ar    1  UNL1        0.0061
      6 C          11.3061   39.3445    9.5689 C.ar    1  UNL1        0.0370
      7 C          10.6775   40.5332    9.9600 C.ar    1  UNL1        0.0206
      8 C           9.5674   41.0247    9.2648 C.ar    1  UNL1        0.0848
      9 C           9.6292   43.4975    9.8666 C.2     1  UNL1        0.2267
     10 C           8.8295   44.7263   10.1079 C.3     1  UNL1        0.0949
     11 O          10.8862   43.5709    9.8382 O.2     1  UNL1       -0.2748
     12 N           8.9626   42.2391    9.7280 N.am    1  UNL1       -0.2815
     13 H           8.0092   42.2043    9.9710 H       1  UNL1        0.1549
     14 C           7.8771   41.5551    6.4023 C.3     1  UNL1        0.2525
     15 O           7.8685   40.7119    7.5464 O.3     1  UNL1       -0.4702
     16 C          13.5416   39.7457   10.8035 C.3     1  UNL1        0.1340
     17 S          15.1894   39.1285   10.3185 S.3     1  UNL1       -0.0657
     18 C          15.5254   40.5099    9.2317 C.ar    1  UNL1        0.2106
     19 C          14.7930   42.0471    7.6007 C.ar    1  UNL1        0.0763
     20 C          16.1087   42.5311    7.4892 C.ar    1  UNL1        0.0941
     21 C          16.4538   43.6808    6.5860 C.3     1  UNL1        0.0489
     22 C          15.4205   43.8670    5.4777 C.3     1  UNL1        0.0068
     23 C          14.0225   43.8976    6.0806 C.3     1  UNL1        0.0067
     24 C          13.6961   42.5399    6.6990 C.3     1  UNL1        0.0472
     25 N          14.5360   41.0314    8.4632 N.ar    1  UNL1       -0.2230
     26 N          17.0666   41.9991    8.2895 N.ar    1  UNL1       -0.1492
     27 N          16.7851   41.0091    9.1371 N.ar    1  UNL1       -0.1221
@<TRIPOS>BOND
     1    14    15    1
     2     3    15    1
     3     4     5   ar
     4     6     7   ar
     5     6     1    1
     6     8    12    1
     7     8     3   ar
     8    10     9    1
     9    16     1    1
    10    16    17    1
    11    18    17    1
    12    18    27   ar
    13    19    25   ar
    14    20    26   ar
    15    21    20    1
    16    21    22    1
    17    22    23    1
    18    23    24    1
    19    24    19    1
    20    12     9   am
    21     3     4   ar
    22     5     6   ar
    23     7     8   ar
    24     9    11    2
    25     1     2    2
    26    18    25   ar
    27    19    20   ar
    28    26    27   ar
    29    12    13    1
@<TRIPOS>MOLECULE
MolPort-000-122-710 5059970 MCULE-4388863312 PubChem-6492870 ZINC000005059970 ZINC05059970
 27 29 0 0 0
SMALL
GASTEIGER

@<TRIPOS>ATOM
      1 C          11.6817   39.8300   10.4289 C.2     1  UNL1        0.1844
      2 O          11.1524   38.7275   10.1243 O.2     1  UNL1       -0.2904
      3 C           9.3374   43.4170   10.1560 C.ar    1  UNL1        0.1520
      4 C          10.6604   43.3928    9.6875 C.ar    1  UNL1        0.0383
      5 C          11.4308   42.2354    9.7973 C.ar    1  UNL1        0.0061
      6 C          10.8913   41.0756   10.3673 C.ar    1  UNL1        0.0370
      7 C           9.5773   41.1022   10.8506 C.ar    1  UNL1        0.0206
      8 C           8.8047   42.2661   10.7759 C.ar    1  UNL1        0.0848
      9 C           6.3505   41.6096   10.6118 C.2     1  UNL1        0.2267
     10 C           5.0782   41.4066   11.3517 C.3     1  UNL1        0.0949
     11 O           6.4189   41.2895    9.3955 O.2     1  UNL1       -0.2748
     12 N           7.4617   42.2197   11.2753 N.am    1  UNL1       -0.2815
     13 H           7.2897   42.6429   12.1474 H       1  UNL1        0.1549
     14 C           7.6484   44.7130    8.8880 C.3     1  UNL1        0.2525
     15 O           8.5410   44.5549    9.9827 O.3     1  UNL1       -0.4702
     16 C          13.1280   39.8583   10.8121 C.3     1  UNL1        0.1340
     17 S          14.1257   38.8074    9.7022 S.3     1  UNL1       -0.0657
     18 C          15.2022   40.1451    9.1980 C.ar    1  UNL1        0.2106
     19 C          15.5770   42.0898    7.9186 C.ar    1  UNL1        0.0763
     20 C          16.9158   42.0956    8.3489 C.ar    1  UNL1        0.0941
     21 C          17.8693   43.1858    7.9502 C.3     1  UNL1        0.0489
     22 C          17.4189   43.9026    6.6799 C.3     1  UNL1        0.0068
     23 C          15.9602   44.3184    6.8162 C.3     1  UNL1        0.0067
     24 C          15.0746   43.0773    6.9028 C.3     1  UNL1        0.0472
     25 N          14.7529   41.0993    8.3441 N.ar    1  UNL1       -0.2230
     26 N          17.3225   41.1373    9.2193 N.ar    1  UNL1       -0.1492
     27 N          16.4891   40.1815    9.6310 N.ar    1  UNL1       -0.1221
@<TRIPOS>BOND
     1    14    15    1
     2     3    15    1
     3     4     5   ar
     4     6     7   ar
     5     6     1    1
     6     8    12    1
     7     8     3   ar
     8    10     9    1
     9    16     1    1
    10    16    17    1
    11    18    17    1
    12    18    27   ar
    13    19    25   ar
    14    20    26   ar
    15    21    20    1
    16    21    22    1
    17    22    23    1
    18    23    24    1
    19    24    19    1
    20    12     9   am
    21     3     4   ar
    22     5     6   ar
    23     7     8   ar
    24     9    11    2
    25     1     2    2
    26    18    25   ar
    27    19    20   ar
    28    26    27   ar
    29    12    13    1
