@<TRIPOS>MOLECULE
MolPort-029-900-191 96153777 CSC047926571 CSSS00047926571 MCULE-7326517109 PubChem-72905603 ZINC000096153777 ZINC96153777
 26 27 0 0 0
SMALL
GASTEIGER

@<TRIPOS>ATOM
      1 C          11.4368   42.1431    8.6894 C.2     1  UNL1        0.3045
      2 N          12.7133   42.0387    8.0551 N.am    1  UNL1       -0.2868
      3 N          11.2337   41.4961    9.9520 N.am    1  UNL1       -0.2682
      4 O          10.5107   42.8010    8.1417 O.2     1  UNL1       -0.2525
      5 H          13.4296   41.5451    8.5160 H       1  UNL1        0.1510
      6 H          12.0014   41.0044   10.3236 H       1  UNL1        0.1564
      7 C          10.0295   41.4899   10.7309 C.ar    1  UNL1        0.0546
      8 C           8.8155   41.7693   10.0943 C.ar    1  UNL1        0.0516
      9 C           7.6155   41.7758   10.8131 C.ar    1  UNL1        0.1396
     10 C           7.6347   41.4958   12.1886 C.ar    1  UNL1        0.0370
     11 C           8.8421   41.2167   12.8327 C.ar    1  UNL1        0.0044
     12 C          10.0354   41.2141   12.1066 C.ar    1  UNL1        0.0149
     13 O           6.4235   42.0583   10.1371 O.3     1  UNL1       -0.4791
     14 C           5.3137   41.1671   10.1071 C.3     1  UNL1        0.1659
     15 C           4.5808   41.1952   11.4402 C.3     1  UNL1        0.0435
     16 C           3.2520   41.8729   11.1862 C.3     1  UNL1        0.0038
     17 C           2.9684   41.6529    9.7204 C.3     1  UNL1        0.0038
     18 C           4.3256   41.6333    9.0534 C.3     1  UNL1        0.0435
     19 C          12.9995   42.6311    6.7568 C.3     1  UNL1        0.1179
     20 C          14.4910   42.5782    6.4742 C.3     1  UNL1        0.1903
     21 S          15.0287   44.0607    5.6348 S.O2    1  UNL1        0.0456
     22 O          14.0276   45.1485    5.9060 O.2     1  UNL1       -0.1572
     23 O          15.0790   43.8108    4.1526 O.2     1  UNL1       -0.1572
     24 C          16.6898   44.2655    7.6051 C.3     1  UNL1        0.1146
     25 C          17.6049   43.7983    5.5084 C.3     1  UNL1        0.1146
     26 N          16.5903   44.5827    6.1906 N.3     1  UNL1       -0.1564
@<TRIPOS>BOND
     1    24    26    1
     2    25    26    1
     3    20    19    1
     4    19     2    1
     5     1     3   am
     6     8     9   ar
     7     9    13    1
     8    14    13    1
     9    14    15    1
    10    15    16    1
    11    16    17    1
    12    17    18    1
    13    18    14    1
    14    10    11   ar
    15    12     7   ar
    16     2     1   am
    17     3     7    1
    18    21    26    1
    19    21    20    1
    20     1     4    2
    21     7     8   ar
    22     9    10   ar
    23    11    12   ar
    24    21    22    2
    25    21    23    2
    26     2     5    1
    27     3     6    1
@<TRIPOS>MOLECULE
MolPort-029-900-191 96153777 CSC047926571 CSSS00047926571 MCULE-7326517109 PubChem-72905603 ZINC000096153777 ZINC96153777
 26 27 0 0 0
SMALL
GASTEIGER

@<TRIPOS>ATOM
      1 C          10.8402   41.6592    9.7373 C.2     1  UNL1        0.3045
      2 N           9.4124   41.6615    9.6739 N.am    1  UNL1       -0.2868
      3 N          11.5265   40.4105    9.8908 N.am    1  UNL1       -0.2682
      4 O          11.4783   42.7436    9.6531 O.2     1  UNL1       -0.2525
      5 H           8.9376   40.7998    9.7117 H       1  UNL1        0.1510
      6 H          10.9657   39.6031    9.9447 H       1  UNL1        0.1564
      7 C          12.9447   40.2136    9.9743 C.ar    1  UNL1        0.0546
      8 C          13.7665   40.8330    9.0266 C.ar    1  UNL1        0.0516
      9 C          15.1551   40.6690    9.0671 C.ar    1  UNL1        0.1396
     10 C          15.7259   39.8746   10.0740 C.ar    1  UNL1        0.0370
     11 C          14.9132   39.2516   11.0237 C.ar    1  UNL1        0.0044
     12 C          13.5275   39.4201   10.9739 C.ar    1  UNL1        0.0149
     13 O          15.9402   41.3079    8.1012 O.3     1  UNL1       -0.4791
     14 C          16.1144   42.7199    8.0468 C.3     1  UNL1        0.1659
     15 C          17.5933   43.0635    7.9472 C.3     1  UNL1        0.0435
     16 C          17.8161   43.6043    6.5517 C.3     1  UNL1        0.0038
     17 C          16.4760   44.1459    6.1177 C.3     1  UNL1        0.0038
     18 C          15.4535   43.2578    6.7907 C.3     1  UNL1        0.0435
     19 C           8.6302   42.8831    9.5560 C.3     1  UNL1        0.1179
     20 C           7.9721   42.9540    8.1888 C.3     1  UNL1        0.1903
     21 S           6.3666   43.7296    8.2990 S.O2    1  UNL1        0.0456
     22 O           5.7886   43.8212    6.9146 O.2     1  UNL1       -0.1572
     23 O           6.5152   45.1203    8.8520 O.2     1  UNL1       -0.1572
     24 C           3.9341   43.3111    9.0676 C.3     1  UNL1        0.1146
     25 C           5.3054   41.4324    8.8635 C.3     1  UNL1        0.1146
     26 N           5.2801   42.8170    9.3023 N.3     1  UNL1       -0.1564
@<TRIPOS>BOND
     1    24    26    1
     2    25    26    1
     3    20    19    1
     4    19     2    1
     5     1     3   am
     6     8     9   ar
     7     9    13    1
     8    14    13    1
     9    14    15    1
    10    15    16    1
    11    16    17    1
    12    17    18    1
    13    18    14    1
    14    10    11   ar
    15    12     7   ar
    16     2     1   am
    17     3     7    1
    18    21    26    1
    19    21    20    1
    20     1     4    2
    21     7     8   ar
    22     9    10   ar
    23    11    12   ar
    24    21    22    2
    25    21    23    2
    26     2     5    1
    27     3     6    1
@<TRIPOS>MOLECULE
MolPort-029-900-191 96153777 CSC047926571 CSSS00047926571 MCULE-7326517109 PubChem-72905603 ZINC000096153777 ZINC96153777
 26 27 0 0 0
SMALL
GASTEIGER

@<TRIPOS>ATOM
      1 C          11.6583   42.2451    6.6317 C.2     1  UNL1        0.3045
      2 N          10.5146   42.2029    5.7756 N.am    1  UNL1       -0.2868
      3 N          12.9465   42.5001    6.0575 N.am    1  UNL1       -0.2682
      4 O          11.5259   42.0651    7.8728 O.2     1  UNL1       -0.2525
      5 H          10.6388   42.3761    4.8145 H       1  UNL1        0.1510
      6 H          12.9753   42.6364    5.0829 H       1  UNL1        0.1564
      7 C          14.1979   42.5774    6.7538 C.ar    1  UNL1        0.0546
      8 C          14.5512   41.5368    7.6195 C.ar    1  UNL1        0.0516
      9 C          15.7610   41.5690    8.3209 C.ar    1  UNL1        0.1396
     10 C          16.6284   42.6593    8.1489 C.ar    1  UNL1        0.0370
     11 C          16.2836   43.7032    7.2874 C.ar    1  UNL1        0.0044
     12 C          15.0725   43.6626    6.5926 C.ar    1  UNL1        0.0149
     13 O          16.0763   40.5066    9.1750 O.3     1  UNL1       -0.4791
     14 C          15.1500   39.4820    9.5203 C.3     1  UNL1        0.1659
     15 C          15.8192   38.4475   10.4131 C.3     1  UNL1        0.0435
     16 C          15.2079   38.6062   11.7881 C.3     1  UNL1        0.0038
     17 C          13.8475   39.2141   11.5494 C.3     1  UNL1        0.0038
     18 C          14.0128   40.0854   10.3244 C.3     1  UNL1        0.0435
     19 C           9.1742   41.9147    6.2640 C.3     1  UNL1        0.1179
     20 C           9.1251   40.5225    6.8693 C.3     1  UNL1        0.1903
     21 S           8.7286   39.3048    5.6238 S.O2    1  UNL1        0.0456
     22 O           7.2521   39.3703    5.3501 O.2     1  UNL1       -0.1572
     23 O           9.0629   37.9312    6.1370 O.2     1  UNL1       -0.1572
     24 C          10.9873   39.2762    4.3667 C.3     1  UNL1        0.1146
     25 C           9.0968   38.6721    3.1367 C.3     1  UNL1        0.1146
     26 N           9.5883   39.5980    4.1423 N.3     1  UNL1       -0.1564
@<TRIPOS>BOND
     1    24    26    1
     2    25    26    1
     3    20    19    1
     4    19     2    1
     5     1     3   am
     6     8     9   ar
     7     9    13    1
     8    14    13    1
     9    14    15    1
    10    15    16    1
    11    16    17    1
    12    17    18    1
    13    18    14    1
    14    10    11   ar
    15    12     7   ar
    16     2     1   am
    17     3     7    1
    18    21    26    1
    19    21    20    1
    20     1     4    2
    21     7     8   ar
    22     9    10   ar
    23    11    12   ar
    24    21    22    2
    25    21    23    2
    26     2     5    1
    27     3     6    1
@<TRIPOS>MOLECULE
MolPort-029-900-191 96153777 CSC047926571 CSSS00047926571 MCULE-7326517109 PubChem-72905603 ZINC000096153777 ZINC96153777
 26 27 0 0 0
SMALL
GASTEIGER

@<TRIPOS>ATOM
      1 C           7.9495   41.6868   10.1583 C.2     1  UNL1        0.3045
      2 N           6.7451   42.3124   10.6064 N.am    1  UNL1       -0.2868
      3 N           9.2090   42.2076   10.6014 N.am    1  UNL1       -0.2682
      4 O           7.8950   40.6889    9.3891 O.2     1  UNL1       -0.2525
      5 H           6.8122   43.0711   11.2303 H       1  UNL1        0.1510
      6 H           9.1767   42.9848   11.2048 H       1  UNL1        0.1564
      7 C          10.5115   41.7152   10.2581 C.ar    1  UNL1        0.0546
      8 C          11.1941   42.3071    9.1900 C.ar    1  UNL1        0.0516
      9 C          12.4662   41.8599    8.8178 C.ar    1  UNL1        0.1396
     10 C          13.0615   40.8060    9.5290 C.ar    1  UNL1        0.0370
     11 C          12.3870   40.2084   10.5961 C.ar    1  UNL1        0.0044
     12 C          11.1164   40.6611   10.9592 C.ar    1  UNL1        0.0149
     13 O          13.1146   42.4811    7.7448 O.3     1  UNL1       -0.4791
     14 C          14.3433   42.0128    7.1989 C.3     1  UNL1        0.1659
     15 C          14.9829   43.0939    6.3403 C.3     1  UNL1        0.0435
     16 C          16.2103   43.5669    7.0881 C.3     1  UNL1        0.0038
     17 C          16.6104   42.4073    7.9672 C.3     1  UNL1        0.0038
     18 C          15.3133   41.7189    8.3288 C.3     1  UNL1        0.0435
     19 C           5.4239   41.8758   10.1800 C.3     1  UNL1        0.1179
     20 C           4.6536   43.0418    9.5847 C.3     1  UNL1        0.1903
     21 S           5.6144   43.8528    8.3157 S.O2    1  UNL1        0.0456
     22 O           6.5052   44.8695    8.9728 O.2     1  UNL1       -0.1572
     23 O           4.6932   44.5637    7.3627 O.2     1  UNL1       -0.1572
     24 C           5.7524   41.6249    7.0116 C.3     1  UNL1        0.1146
     25 C           7.0847   43.3776    6.2339 C.3     1  UNL1        0.1146
     26 N           6.6019   42.7240    7.4379 N.3     1  UNL1       -0.1564
@<TRIPOS>BOND
     1    24    26    1
     2    25    26    1
     3    20    19    1
     4    19     2    1
     5     1     3   am
     6     8     9   ar
     7     9    13    1
     8    14    13    1
     9    14    15    1
    10    15    16    1
    11    16    17    1
    12    17    18    1
    13    18    14    1
    14    10    11   ar
    15    12     7   ar
    16     2     1   am
    17     3     7    1
    18    21    26    1
    19    21    20    1
    20     1     4    2
    21     7     8   ar
    22     9    10   ar
    23    11    12   ar
    24    21    22    2
    25    21    23    2
    26     2     5    1
    27     3     6    1
@<TRIPOS>MOLECULE
MolPort-029-900-191 96153777 CSC047926571 CSSS00047926571 MCULE-7326517109 PubChem-72905603 ZINC000096153777 ZINC96153777
 26 27 0 0 0
SMALL
GASTEIGER

@<TRIPOS>ATOM
      1 C          11.4716   38.3821    8.5956 C.2     1  UNL1        0.3045
      2 N          11.8350   37.1994    9.3110 N.am    1  UNL1       -0.2868
      3 N          10.0909   38.7620    8.5376 N.am    1  UNL1       -0.2682
      4 O          12.3596   39.0776    8.0316 O.2     1  UNL1       -0.2525
      5 H          11.1279   36.6893    9.7682 H       1  UNL1        0.1510
      6 H           9.4527   38.1757    9.0046 H       1  UNL1        0.1564
      7 C           9.5416   39.9066    7.8705 C.ar    1  UNL1        0.0546
      8 C           8.5624   40.6610    8.5258 C.ar    1  UNL1        0.0516
      9 C           7.9968   41.7848    7.9144 C.ar    1  UNL1        0.1396
     10 C           8.4217   42.1573    6.6293 C.ar    1  UNL1        0.0370
     11 C           9.3980   41.4095    5.9672 C.ar    1  UNL1        0.0044
     12 C           9.9557   40.2879    6.5854 C.ar    1  UNL1        0.0149
     13 O           7.0219   42.5122    8.6058 O.3     1  UNL1       -0.4791
     14 C           5.6293   42.4109    8.3274 C.3     1  UNL1        0.1659
     15 C           5.0934   41.0704    8.8081 C.3     1  UNL1        0.0435
     16 C           4.2037   41.3641    9.9963 C.3     1  UNL1        0.0038
     17 C           3.7404   42.7872    9.8026 C.3     1  UNL1        0.0038
     18 C           4.8848   43.4838    9.1009 C.3     1  UNL1        0.0435
     19 C          13.2057   36.7169    9.3925 C.3     1  UNL1        0.1179
     20 C          13.6876   36.7485   10.8326 C.3     1  UNL1        0.1903
     21 S          15.2633   37.5814   10.9542 S.O2    1  UNL1        0.0456
     22 O          16.0946   37.1993    9.7618 O.2     1  UNL1       -0.1572
     23 O          15.9753   37.1339   12.2012 O.2     1  UNL1       -0.1572
     24 C          15.3294   39.8045    9.6365 C.3     1  UNL1        0.1146
     25 C          13.6906   39.6152   11.2888 C.3     1  UNL1        0.1146
     26 N          15.0763   39.3089   10.9787 N.3     1  UNL1       -0.1564
@<TRIPOS>BOND
     1    24    26    1
     2    25    26    1
     3    20    19    1
     4    19     2    1
     5     1     3   am
     6     8     9   ar
     7     9    13    1
     8    14    13    1
     9    14    15    1
    10    15    16    1
    11    16    17    1
    12    17    18    1
    13    18    14    1
    14    10    11   ar
    15    12     7   ar
    16     2     1   am
    17     3     7    1
    18    21    26    1
    19    21    20    1
    20     1     4    2
    21     7     8   ar
    22     9    10   ar
    23    11    12   ar
    24    21    22    2
    25    21    23    2
    26     2     5    1
    27     3     6    1
@<TRIPOS>MOLECULE
MolPort-029-900-191 96153777 CSC047926571 CSSS00047926571 MCULE-7326517109 PubChem-72905603 ZINC000096153777 ZINC96153777
 26 27 0 0 0
SMALL
GASTEIGER

@<TRIPOS>ATOM
      1 C           9.3538   40.8323    9.9900 C.2     1  UNL1        0.3045
      2 N           8.1063   41.2471    9.4293 N.am    1  UNL1       -0.2868
      3 N          10.1780   39.9210    9.2523 N.am    1  UNL1       -0.2682
      4 O           9.7182   41.2708   11.1148 O.2     1  UNL1       -0.2525
      5 H           7.8571   40.9148    8.5367 H       1  UNL1        0.1510
      6 H           9.8338   39.6236    8.3792 H       1  UNL1        0.1564
      7 C          11.4516   39.3970    9.6525 C.ar    1  UNL1        0.0546
      8 C          12.5693   40.2369    9.6051 C.ar    1  UNL1        0.0516
      9 C          13.8321   39.7699    9.9845 C.ar    1  UNL1        0.1396
     10 C          13.9737   38.4426   10.4195 C.ar    1  UNL1        0.0370
     11 C          12.8636   37.5966   10.4691 C.ar    1  UNL1        0.0044
     12 C          11.6070   38.0719   10.0866 C.ar    1  UNL1        0.0149
     13 O          14.9230   40.6438    9.9238 O.3     1  UNL1       -0.4791
     14 C          15.7524   40.7774    8.7743 C.3     1  UNL1        0.1659
     15 C          15.1809   41.8273    7.8329 C.3     1  UNL1        0.0435
     16 C          16.1226   43.0105    7.8858 C.3     1  UNL1        0.0038
     17 C          17.4563   42.4377    8.2989 C.3     1  UNL1        0.0038
     18 C          17.1232   41.2703    9.2007 C.3     1  UNL1        0.0435
     19 C           7.1885   42.1396   10.1216 C.3     1  UNL1        0.1179
     20 C           6.1078   42.6214    9.1692 C.3     1  UNL1        0.1903
     21 S           4.4891   42.4315    9.9007 S.O2    1  UNL1        0.0456
     22 O           3.5893   43.4990    9.3442 O.2     1  UNL1       -0.1572
     23 O           4.5851   42.6109   11.3909 O.2     1  UNL1       -0.1572
     24 C           3.7757   40.1064   10.7771 C.3     1  UNL1        0.1146
     25 C           2.4215   41.0673    9.1356 C.3     1  UNL1        0.1146
     26 N           3.8021   40.8755    9.5446 N.3     1  UNL1       -0.1564
@<TRIPOS>BOND
     1    24    26    1
     2    25    26    1
     3    20    19    1
     4    19     2    1
     5     1     3   am
     6     8     9   ar
     7     9    13    1
     8    14    13    1
     9    14    15    1
    10    15    16    1
    11    16    17    1
    12    17    18    1
    13    18    14    1
    14    10    11   ar
    15    12     7   ar
    16     2     1   am
    17     3     7    1
    18    21    26    1
    19    21    20    1
    20     1     4    2
    21     7     8   ar
    22     9    10   ar
    23    11    12   ar
    24    21    22    2
    25    21    23    2
    26     2     5    1
    27     3     6    1
@<TRIPOS>MOLECULE
MolPort-029-900-191 96153777 CSC047926571 CSSS00047926571 MCULE-7326517109 PubChem-72905603 ZINC000096153777 ZINC96153777
 26 27 0 0 0
SMALL
GASTEIGER

@<TRIPOS>ATOM
      1 C           7.8960   42.4682    8.3084 C.2     1  UNL1        0.3045
      2 N           6.5416   42.3886    7.8591 N.am    1  UNL1       -0.2868
      3 N           8.7555   41.3358    8.1270 N.am    1  UNL1       -0.2682
      4 O           8.3212   43.5247    8.8501 O.2     1  UNL1       -0.2525
      5 H           6.2410   41.5644    7.4122 H       1  UNL1        0.1510
      6 H           8.3588   40.5466    7.6923 H       1  UNL1        0.1564
      7 C          10.1330   41.2317    8.5124 C.ar    1  UNL1        0.0546
      8 C          11.0586   42.1139    7.9447 C.ar    1  UNL1        0.0516
      9 C          12.4129   42.0495    8.2890 C.ar    1  UNL1        0.1396
     10 C          12.8428   41.0881    9.2174 C.ar    1  UNL1        0.0370
     11 C          11.9260   40.2027    9.7885 C.ar    1  UNL1        0.0044
     12 C          10.5760   40.2739    9.4370 C.ar    1  UNL1        0.0149
     13 O          13.3045   42.9519    7.6992 O.3     1  UNL1       -0.4791
     14 C          14.3435   42.5541    6.8107 C.3     1  UNL1        0.1659
     15 C          14.4200   43.5103    5.6297 C.3     1  UNL1        0.0435
     16 C          15.7046   44.2931    5.7927 C.3     1  UNL1        0.0038
     17 C          16.6060   43.4083    6.6185 C.3     1  UNL1        0.0038
     18 C          15.6772   42.6383    7.5304 C.3     1  UNL1        0.0435
     19 C           5.5876   43.4738    8.0340 C.3     1  UNL1        0.1179
     20 C           4.8027   43.2793    9.3198 C.3     1  UNL1        0.1903
     21 S           4.1156   41.6322    9.3986 S.O2    1  UNL1        0.0456
     22 O           4.7311   40.8090    8.3020 O.2     1  UNL1       -0.1572
     23 O           2.6292   41.6948    9.1778 O.2     1  UNL1       -0.1572
     24 C           5.7691   41.2892   11.3560 C.3     1  UNL1        0.1146
     25 C           3.5015   41.3805   11.9049 C.3     1  UNL1        0.1146
     26 N           4.4458   40.8711   10.9256 N.3     1  UNL1       -0.1564
@<TRIPOS>BOND
     1    24    26    1
     2    25    26    1
     3    20    19    1
     4    19     2    1
     5     1     3   am
     6     8     9   ar
     7     9    13    1
     8    14    13    1
     9    14    15    1
    10    15    16    1
    11    16    17    1
    12    17    18    1
    13    18    14    1
    14    10    11   ar
    15    12     7   ar
    16     2     1   am
    17     3     7    1
    18    21    26    1
    19    21    20    1
    20     1     4    2
    21     7     8   ar
    22     9    10   ar
    23    11    12   ar
    24    21    22    2
    25    21    23    2
    26     2     5    1
    27     3     6    1
@<TRIPOS>MOLECULE
MolPort-029-900-191 96153777 CSC047926571 CSSS00047926571 MCULE-7326517109 PubChem-72905603 ZINC000096153777 ZINC96153777
 26 27 0 0 0
SMALL
GASTEIGER

@<TRIPOS>ATOM
      1 C          12.6530   41.0795    9.5156 C.2     1  UNL1        0.3045
      2 N          13.6309   40.0883    9.8381 N.am    1  UNL1       -0.2868
      3 N          11.3988   41.0691   10.2089 N.am    1  UNL1       -0.2682
      4 O          12.9008   41.9496    8.6370 O.2     1  UNL1       -0.2525
      5 H          13.4262   39.4381   10.5484 H       1  UNL1        0.1510
      6 H          11.2753   40.3649   10.8858 H       1  UNL1        0.1564
      7 C          10.3046   41.9768   10.0202 C.ar    1  UNL1        0.0546
      8 C           9.0353   41.4534    9.7516 C.ar    1  UNL1        0.0516
      9 C           7.9383   42.2998    9.5592 C.ar    1  UNL1        0.1396
     10 C           8.1179   43.6897    9.6399 C.ar    1  UNL1        0.0370
     11 C           9.3816   44.2212    9.9067 C.ar    1  UNL1        0.0044
     12 C          10.4712   43.3679   10.0958 C.ar    1  UNL1        0.0149
     13 O           6.6861   41.7345    9.2946 O.3     1  UNL1       -0.4791
     14 C           5.5100   42.0674   10.0248 C.3     1  UNL1        0.1659
     15 C           4.2736   41.5992    9.2716 C.3     1  UNL1        0.0435
     16 C           3.6953   40.4493   10.0671 C.3     1  UNL1        0.0038
     17 C           4.1658   40.6710   11.4838 C.3     1  UNL1        0.0038
     18 C           5.5199   41.3314   11.3523 C.3     1  UNL1        0.0435
     19 C          14.9162   39.9991    9.1612 C.3     1  UNL1        0.1179
     20 C          15.9595   39.4082   10.0936 C.3     1  UNL1        0.1903
     21 S          15.2547   38.0980   11.0826 S.O2    1  UNL1        0.0456
     22 O          14.4485   38.7200   12.1881 O.2     1  UNL1       -0.1572
     23 O          16.3577   37.2780   11.6933 O.2     1  UNL1       -0.1572
     24 C          15.0599   36.1629    9.3794 C.3     1  UNL1        0.1146
     25 C          13.4325   36.2540   11.0512 C.3     1  UNL1        0.1146
     26 N          14.2176   37.0695   10.1409 N.3     1  UNL1       -0.1564
@<TRIPOS>BOND
     1    24    26    1
     2    25    26    1
     3    20    19    1
     4    19     2    1
     5     1     3   am
     6     8     9   ar
     7     9    13    1
     8    14    13    1
     9    14    15    1
    10    15    16    1
    11    16    17    1
    12    17    18    1
    13    18    14    1
    14    10    11   ar
    15    12     7   ar
    16     2     1   am
    17     3     7    1
    18    21    26    1
    19    21    20    1
    20     1     4    2
    21     7     8   ar
    22     9    10   ar
    23    11    12   ar
    24    21    22    2
    25    21    23    2
    26     2     5    1
    27     3     6    1
@<TRIPOS>MOLECULE
MolPort-029-900-191 96153777 CSC047926571 CSSS00047926571 MCULE-7326517109 PubChem-72905603 ZINC000096153777 ZINC96153777
 26 27 0 0 0
SMALL
GASTEIGER

@<TRIPOS>ATOM
      1 C          11.3174   40.9122    5.6627 C.2     1  UNL1        0.3045
      2 N          10.0251   40.8915    5.0526 N.am    1  UNL1       -0.2868
      3 N          12.0249   42.1555    5.7489 N.am    1  UNL1       -0.2682
      4 O          11.8173   39.8488    6.1206 O.2     1  UNL1       -0.2525
      5 H           9.6429   41.7393    4.7295 H       1  UNL1        0.1510
      6 H          11.5727   42.9465    5.3758 H       1  UNL1        0.1564
      7 C          13.3224   42.3684    6.3215 C.ar    1  UNL1        0.0546
      8 C          13.7218   41.5690    7.3979 C.ar    1  UNL1        0.0516
      9 C          14.9776   41.7408    7.9896 C.ar    1  UNL1        0.1396
     10 C          15.8446   42.7266    7.4923 C.ar    1  UNL1        0.0370
     11 C          15.4540   43.5300    6.4187 C.ar    1  UNL1        0.0044
     12 C          14.1972   43.3519    5.8355 C.ar    1  UNL1        0.0149
     13 O          15.3380   40.9185    9.0627 O.3     1  UNL1       -0.4791
     14 C          14.6125   39.7489    9.4272 C.3     1  UNL1        0.1659
     15 C          15.5404   38.7390   10.0862 C.3     1  UNL1        0.0435
     16 C          15.1498   38.6855   11.5470 C.3     1  UNL1        0.0038
     17 C          13.7050   39.1198   11.5873 C.3     1  UNL1        0.0038
     18 C          13.5590   40.1139   10.4571 C.3     1  UNL1        0.0435
     19 C           9.2501   39.6706    4.8883 C.3     1  UNL1        0.1179
     20 C           8.5389   39.3230    6.1846 C.3     1  UNL1        0.1903
     21 S           7.0689   40.3178    6.3862 S.O2    1  UNL1        0.0456
     22 O           5.8742   39.4731    6.0423 O.2     1  UNL1       -0.1572
     23 O           7.1188   41.4883    5.4431 O.2     1  UNL1       -0.1572
     24 C           8.2310   41.0052    8.5907 C.3     1  UNL1        0.1146
     25 C           6.3414   42.2317    7.9767 C.3     1  UNL1        0.1146
     26 N           6.9006   40.8916    8.0179 N.3     1  UNL1       -0.1564
@<TRIPOS>BOND
     1    24    26    1
     2    25    26    1
     3    20    19    1
     4    19     2    1
     5     1     3   am
     6     8     9   ar
     7     9    13    1
     8    14    13    1
     9    14    15    1
    10    15    16    1
    11    16    17    1
    12    17    18    1
    13    18    14    1
    14    10    11   ar
    15    12     7   ar
    16     2     1   am
    17     3     7    1
    18    21    26    1
    19    21    20    1
    20     1     4    2
    21     7     8   ar
    22     9    10   ar
    23    11    12   ar
    24    21    22    2
    25    21    23    2
    26     2     5    1
    27     3     6    1
@<TRIPOS>MOLECULE
MolPort-029-900-191 96153777 CSC047926571 CSSS00047926571 MCULE-7326517109 PubChem-72905603 ZINC000096153777 ZINC96153777
 26 27 0 0 0
SMALL
GASTEIGER

@<TRIPOS>ATOM
      1 C          11.5187   40.0186    9.4774 C.2     1  UNL1        0.3045
      2 N          12.2665   40.0150   10.6953 N.am    1  UNL1       -0.2868
      3 N          10.0936   40.1576    9.5379 N.am    1  UNL1       -0.2682
      4 O          12.1126   39.9060    8.3706 O.2     1  UNL1       -0.2525
      5 H          11.7838   40.1344   11.5450 H       1  UNL1        0.1510
      6 H           9.6972   40.2462   10.4348 H       1  UNL1        0.1564
      7 C           9.1842   40.1813    8.4291 C.ar    1  UNL1        0.0546
      8 C           8.3247   41.2761    8.2877 C.ar    1  UNL1        0.0516
      9 C           7.4200   41.3426    7.2229 C.ar    1  UNL1        0.1396
     10 C           7.3796   40.2973    6.2867 C.ar    1  UNL1        0.0370
     11 C           8.2332   39.2000    6.4205 C.ar    1  UNL1        0.0044
     12 C           9.1321   39.1420    7.4881 C.ar    1  UNL1        0.0149
     13 O           6.5797   42.4564    7.1178 O.3     1  UNL1       -0.4791
     14 C           6.1367   43.2083    8.2427 C.3     1  UNL1        0.1659
     15 C           5.6574   44.5829    7.8004 C.3     1  UNL1        0.0435
     16 C           4.1553   44.5938    7.9825 C.3     1  UNL1        0.0038
     17 C           3.8783   43.5668    9.0530 C.3     1  UNL1        0.0038
     18 C           4.9456   42.5104    8.8736 C.3     1  UNL1        0.0435
     19 C          13.7112   39.8425   10.7331 C.3     1  UNL1        0.1179
     20 C          14.0822   38.7439   11.7142 C.3     1  UNL1        0.1903
     21 S          15.3314   37.6716   11.0206 S.O2    1  UNL1        0.0456
     22 O          16.1684   37.1298   12.1453 O.2     1  UNL1       -0.1572
     23 O          16.2180   38.4615   10.0976 O.2     1  UNL1       -0.1572
     24 C          13.2948   36.1142   10.6894 C.3     1  UNL1        0.1146
     25 C          14.4621   36.7350    8.7649 C.3     1  UNL1        0.1146
     26 N          14.6262   36.3411   10.1534 N.3     1  UNL1       -0.1564
@<TRIPOS>BOND
     1    24    26    1
     2    25    26    1
     3    20    19    1
     4    19     2    1
     5     1     3   am
     6     8     9   ar
     7     9    13    1
     8    14    13    1
     9    14    15    1
    10    15    16    1
    11    16    17    1
    12    17    18    1
    13    18    14    1
    14    10    11   ar
    15    12     7   ar
    16     2     1   am
    17     3     7    1
    18    21    26    1
    19    21    20    1
    20     1     4    2
    21     7     8   ar
    22     9    10   ar
    23    11    12   ar
    24    21    22    2
    25    21    23    2
    26     2     5    1
    27     3     6    1
