@<TRIPOS>MOLECULE
MolPort-010-852-299 41076401 ChemDiv-G952-2104 MCULE-1425239194 PubChem-52095933 ZINC000041076401 ZINC41076401
 25 27 0 0 0
SMALL
GASTEIGER

@<TRIPOS>ATOM
      1 C          14.4043   40.3897    8.8995 C.2     1  UNL1        0.2509
      2 N          13.8314   41.0104    7.7400 N.am    1  UNL1       -0.2592
      3 O          15.3973   40.9063    9.4799 O.2     1  UNL1       -0.2698
      4 H          13.0590   40.5568    7.3315 H       1  UNL1        0.1571
      5 C          16.6664   44.6347    6.2473 C.ar    1  UNL1        0.1643
      6 C          14.6184   44.2665    5.9642 C.ar    1  UNL1        0.2195
      7 C          14.2694   42.2236    7.1164 C.ar    1  UNL1        0.1882
      8 N          16.1627   45.6468    5.4899 N.ar    1  UNL1       -0.1310
      9 N          14.8559   45.4151    5.3087 N.ar    1  UNL1       -0.1202
     10 N          15.5659   42.6383    7.1919 N.ar    1  UNL1       -0.1399
     11 N          15.6861   43.7785    6.5324 N.ar    1  UNL1       -0.1881
     12 S          13.2689   43.3052    6.2038 S.2     1  UNL1       -0.0111
     13 C          18.0929   44.4866    6.6646 C.3     1  UNL1        0.0677
     14 C          17.7166   44.0695    9.0965 C.3     1  UNL1        0.0005
     15 C          18.2303   43.4810    7.7962 C.3     1  UNL1        0.0080
     16 C          13.8275   39.1360    9.4165 C.ar    1  UNL1        0.0537
     17 C          12.7537   38.5236    8.7572 C.ar    1  UNL1        0.0042
     18 C          12.2060   37.3363    9.2493 C.ar    1  UNL1       -0.0041
     19 C          12.7094   36.7442   10.4211 C.ar    1  UNL1       -0.0228
     20 C          13.8055   37.3498   11.0608 C.ar    1  UNL1       -0.0041
     21 C          14.3530   38.5371   10.5684 C.ar    1  UNL1        0.0042
     22 C          12.1611   35.4187   10.9153 C.3     1  UNL1        0.0189
     23 C          12.8926   35.0163   12.1816 C.3     1  UNL1        0.0044
     24 C          12.3437   34.3180    9.8809 C.3     1  UNL1        0.0044
     25 C          10.6740   35.5095   11.2239 C.3     1  UNL1        0.0044
@<TRIPOS>BOND
     1    14    15    1
     2    15    13    1
     3    13     5    1
     4     6    12   ar
     5     7    12   ar
     6     7     2    1
     7     1    16    1
     8    17    18   ar
     9    19    20   ar
    10    21    16   ar
    11    22    19    1
    12    22    23    1
    13    22    24    1
    14    22    25    1
    15     8     9   ar
    16     2     1   am
    17    11    10   ar
    18    11     5   ar
    19    11     6   ar
    20     5     8   ar
    21     6     9   ar
    22     7    10   ar
    23     1     3    2
    24    16    17   ar
    25    18    19   ar
    26    20    21   ar
    27     2     4    1
@<TRIPOS>MOLECULE
MolPort-010-852-299 41076401 ChemDiv-G952-2104 MCULE-1425239194 PubChem-52095933 ZINC000041076401 ZINC41076401
 25 27 0 0 0
SMALL
GASTEIGER

@<TRIPOS>ATOM
      1 C           2.8408   41.8275   12.1324 C.2     1  UNL1        0.2509
      2 N           1.8496   42.8159   12.4462 N.am    1  UNL1       -0.2592
      3 O           2.8821   40.7367   12.7634 O.2     1  UNL1       -0.2698
      4 H           1.8714   43.6471   11.9190 H       1  UNL1        0.1571
      5 C          -0.6781   43.5539   16.5041 C.ar    1  UNL1        0.1643
      6 C          -1.0215   42.2866   14.8652 C.ar    1  UNL1        0.2195
      7 C           0.8313   42.7160   13.4489 C.ar    1  UNL1        0.1882
      8 N          -1.8442   42.8897   16.7292 N.ar    1  UNL1       -0.1310
      9 N          -2.0651   42.0794   15.6857 N.ar    1  UNL1       -0.1202
     10 N           0.8791   43.4569   14.5924 N.ar    1  UNL1       -0.1399
     11 N          -0.1786   43.1659   15.3314 N.ar    1  UNL1       -0.1881
     12 S          -0.5626   41.6891   13.3702 S.2     1  UNL1       -0.0111
     13 C          -0.0711   44.5773   17.4069 C.3     1  UNL1        0.0677
     14 C           2.3174   44.0516   17.9052 C.3     1  UNL1        0.0005
     15 C           0.8870   43.9345   18.3965 C.3     1  UNL1        0.0080
     16 C           3.8205   42.0899   11.0633 C.ar    1  UNL1        0.0537
     17 C           5.1160   41.5624   11.1423 C.ar    1  UNL1        0.0042
     18 C           6.0448   41.8135   10.1292 C.ar    1  UNL1       -0.0041
     19 C           5.7034   42.6117    9.0231 C.ar    1  UNL1       -0.0228
     20 C           4.3927   43.1136    8.9374 C.ar    1  UNL1       -0.0041
     21 C           3.4641   42.8623    9.9505 C.ar    1  UNL1        0.0042
     22 C           6.6893   42.8256    7.8898 C.3     1  UNL1        0.0189
     23 C           8.0319   43.2331    8.4659 C.3     1  UNL1        0.0044
     24 C           6.2197   43.9169    6.9394 C.3     1  UNL1        0.0044
     25 C           6.8796   41.5592    7.0684 C.3     1  UNL1        0.0044
@<TRIPOS>BOND
     1    14    15    1
     2    15    13    1
     3    13     5    1
     4     6    12   ar
     5     7    12   ar
     6     7     2    1
     7     1    16    1
     8    17    18   ar
     9    19    20   ar
    10    21    16   ar
    11    22    19    1
    12    22    23    1
    13    22    24    1
    14    22    25    1
    15     8     9   ar
    16     2     1   am
    17    11    10   ar
    18    11     5   ar
    19    11     6   ar
    20     5     8   ar
    21     6     9   ar
    22     7    10   ar
    23     1     3    2
    24    16    17   ar
    25    18    19   ar
    26    20    21   ar
    27     2     4    1
@<TRIPOS>MOLECULE
MolPort-010-852-299 41076401 ChemDiv-G952-2104 MCULE-1425239194 PubChem-52095933 ZINC000041076401 ZINC41076401
 25 27 0 0 0
SMALL
GASTEIGER

@<TRIPOS>ATOM
      1 C           1.5394   42.2935   12.3775 C.2     1  UNL1        0.2509
      2 N           2.9547   42.0796   12.4728 N.am    1  UNL1       -0.2592
      3 O           0.9546   42.2336   11.2621 O.2     1  UNL1       -0.2698
      4 H           3.3520   42.1418   13.3714 H       1  UNL1        0.1571
      5 C           7.0149   41.5223    9.9028 C.ar    1  UNL1        0.1643
      6 C           5.0006   41.1980    9.4050 C.ar    1  UNL1        0.2195
      7 C           3.8486   41.7846   11.3928 C.ar    1  UNL1        0.1882
      8 N           6.9714   41.0665    8.6214 N.ar    1  UNL1       -0.1310
      9 N           5.6874   40.8600    8.3006 N.ar    1  UNL1       -0.1202
     10 N           5.1974   41.9372   11.5194 N.ar    1  UNL1       -0.1399
     11 N           5.7724   41.5956   10.3783 N.ar    1  UNL1       -0.1881
     12 S           3.3807   41.2082    9.8268 S.2     1  UNL1       -0.0111
     13 C           8.2545   41.8550   10.6667 C.3     1  UNL1        0.0677
     14 C          10.0959   43.5305   10.4887 C.3     1  UNL1        0.0005
     15 C           9.3129   42.4570    9.7568 C.3     1  UNL1        0.0080
     16 C           0.7619   42.5870   13.5946 C.ar    1  UNL1        0.0537
     17 C          -0.0775   41.6139   14.1526 C.ar    1  UNL1        0.0042
     18 C          -0.8158   41.8938   15.3052 C.ar    1  UNL1       -0.0041
     19 C          -0.7437   43.1585   15.9154 C.ar    1  UNL1       -0.0228
     20 C           0.1227   44.1199   15.3656 C.ar    1  UNL1       -0.0041
     21 C           0.8610   43.8398   14.2130 C.ar    1  UNL1        0.0042
     22 C          -1.4908   43.4386   17.2059 C.3     1  UNL1        0.0189
     23 C          -0.4903   43.6869   18.3186 C.3     1  UNL1        0.0044
     24 C          -2.3763   42.2672   17.6043 C.3     1  UNL1        0.0044
     25 C          -2.3862   44.6620   17.0788 C.3     1  UNL1        0.0044
@<TRIPOS>BOND
     1    14    15    1
     2    15    13    1
     3    13     5    1
     4     6    12   ar
     5     7    12   ar
     6     7     2    1
     7     1    16    1
     8    17    18   ar
     9    19    20   ar
    10    21    16   ar
    11    22    19    1
    12    22    23    1
    13    22    24    1
    14    22    25    1
    15     8     9   ar
    16     2     1   am
    17    11    10   ar
    18    11     5   ar
    19    11     6   ar
    20     5     8   ar
    21     6     9   ar
    22     7    10   ar
    23     1     3    2
    24    16    17   ar
    25    18    19   ar
    26    20    21   ar
    27     2     4    1
@<TRIPOS>MOLECULE
MolPort-010-852-299 41076401 ChemDiv-G952-2104 MCULE-1425239194 PubChem-52095933 ZINC000041076401 ZINC41076401
 25 27 0 0 0
SMALL
GASTEIGER

@<TRIPOS>ATOM
      1 C           4.8796   41.4099   10.5378 C.2     1  UNL1        0.2509
      2 N           6.1310   42.0392   10.8478 N.am    1  UNL1       -0.2592
      3 O           4.7697   40.6619    9.5289 O.2     1  UNL1       -0.2698
      4 H           6.1515   42.6129   11.6476 H       1  UNL1        0.1571
      5 C          10.7411   41.0781    9.7415 C.ar    1  UNL1        0.1643
      6 C           9.1697   41.8587    8.5876 C.ar    1  UNL1        0.2195
      7 C           7.3539   41.9173   10.1115 C.ar    1  UNL1        0.1882
      8 N          11.2168   41.2982    8.4857 N.ar    1  UNL1       -0.1310
      9 N          10.2166   41.7974    7.7477 N.ar    1  UNL1       -0.1202
     10 N           8.4906   41.4343   10.6888 N.ar    1  UNL1       -0.1399
     11 N           9.4573   41.4320    9.7860 N.ar    1  UNL1       -0.1881
     12 S           7.5725   42.3395    8.4449 S.2     1  UNL1       -0.0111
     13 C          11.5195   40.5018   10.8786 C.3     1  UNL1        0.0677
     14 C          13.6070   39.2703   11.4748 C.3     1  UNL1        0.0005
     15 C          12.9453   40.1826   10.4594 C.3     1  UNL1        0.0080
     16 C           3.7116   41.6408   11.4063 C.ar    1  UNL1        0.0537
     17 C           3.2643   40.6377   12.2761 C.ar    1  UNL1        0.0042
     18 C           2.1555   40.8567   13.0974 C.ar    1  UNL1       -0.0041
     19 C           1.4596   42.0777   13.0547 C.ar    1  UNL1       -0.0228
     20 C           1.9321   43.0893   12.1999 C.ar    1  UNL1       -0.0041
     21 C           3.0409   42.8701   11.3787 C.ar    1  UNL1        0.0042
     22 C           0.2996   42.3404   13.9967 C.3     1  UNL1        0.0189
     23 C          -0.5876   41.1115   14.0516 C.3     1  UNL1        0.0044
     24 C          -0.5394   43.5223   13.5339 C.3     1  UNL1        0.0044
     25 C           0.7833   42.6511   15.4054 C.3     1  UNL1        0.0044
@<TRIPOS>BOND
     1    14    15    1
     2    15    13    1
     3    13     5    1
     4     6    12   ar
     5     7    12   ar
     6     7     2    1
     7     1    16    1
     8    17    18   ar
     9    19    20   ar
    10    21    16   ar
    11    22    19    1
    12    22    23    1
    13    22    24    1
    14    22    25    1
    15     8     9   ar
    16     2     1   am
    17    11    10   ar
    18    11     5   ar
    19    11     6   ar
    20     5     8   ar
    21     6     9   ar
    22     7    10   ar
    23     1     3    2
    24    16    17   ar
    25    18    19   ar
    26    20    21   ar
    27     2     4    1
@<TRIPOS>MOLECULE
MolPort-010-852-299 41076401 ChemDiv-G952-2104 MCULE-1425239194 PubChem-52095933 ZINC000041076401 ZINC41076401
 25 27 0 0 0
SMALL
GASTEIGER

@<TRIPOS>ATOM
      1 C           9.2796   41.5662    8.6412 C.2     1  UNL1        0.2509
      2 N          10.3607   41.2067    9.5129 N.am    1  UNL1       -0.2592
      3 O           9.5062   41.9503    7.4619 O.2     1  UNL1       -0.2698
      4 H          10.1183   40.9169   10.4220 H       1  UNL1        0.1571
      5 C          15.1005   40.2446    9.6116 C.ar    1  UNL1        0.1643
      6 C          13.9669   41.5170    8.3843 C.ar    1  UNL1        0.2195
      7 C          11.7574   41.2266    9.1945 C.ar    1  UNL1        0.1882
      8 N          15.9493   40.8322    8.7252 N.ar    1  UNL1       -0.1310
      9 N          15.2290   41.6455    7.9417 N.ar    1  UNL1       -0.1202
     10 N          12.6583   40.4702    9.8836 N.ar    1  UNL1       -0.1399
     11 N          13.8634   40.6829    9.3816 N.ar    1  UNL1       -0.1881
     12 S          12.4906   42.1674    7.9372 S.2     1  UNL1       -0.0111
     13 C          15.4843   39.2447   10.6526 C.3     1  UNL1        0.0677
     14 C          17.6180   37.9908   10.9770 C.3     1  UNL1        0.0005
     15 C          16.4114   38.1857   10.0784 C.3     1  UNL1        0.0080
     16 C           7.8912   41.4868    9.1291 C.ar    1  UNL1        0.0537
     17 C           6.8417   41.2130    8.2424 C.ar    1  UNL1        0.0042
     18 C           5.5255   41.1401    8.7055 C.ar    1  UNL1       -0.0041
     19 C           5.2283   41.3560   10.0627 C.ar    1  UNL1       -0.0228
     20 C           6.2903   41.6021   10.9508 C.ar    1  UNL1       -0.0041
     21 C           7.6064   41.6749   10.4875 C.ar    1  UNL1        0.0042
     22 C           3.8087   41.2072   10.5769 C.3     1  UNL1        0.0189
     23 C           3.6935   39.9122   11.3582 C.3     1  UNL1        0.0044
     24 C           2.8019   41.1752    9.4367 C.3     1  UNL1        0.0044
     25 C           3.4221   42.3599   11.4916 C.3     1  UNL1        0.0044
@<TRIPOS>BOND
     1    14    15    1
     2    15    13    1
     3    13     5    1
     4     6    12   ar
     5     7    12   ar
     6     7     2    1
     7     1    16    1
     8    17    18   ar
     9    19    20   ar
    10    21    16   ar
    11    22    19    1
    12    22    23    1
    13    22    24    1
    14    22    25    1
    15     8     9   ar
    16     2     1   am
    17    11    10   ar
    18    11     5   ar
    19    11     6   ar
    20     5     8   ar
    21     6     9   ar
    22     7    10   ar
    23     1     3    2
    24    16    17   ar
    25    18    19   ar
    26    20    21   ar
    27     2     4    1
@<TRIPOS>MOLECULE
MolPort-010-852-299 41076401 ChemDiv-G952-2104 MCULE-1425239194 PubChem-52095933 ZINC000041076401 ZINC41076401
 25 27 0 0 0
SMALL
GASTEIGER

@<TRIPOS>ATOM
      1 C          16.0571   38.3801    9.6596 C.2     1  UNL1        0.2509
      2 N          17.3892   37.8830    9.4692 N.am    1  UNL1       -0.2592
      3 O          15.2354   37.7544   10.3827 O.2     1  UNL1       -0.2698
      4 H          17.9821   38.4162    8.8918 H       1  UNL1        0.1571
      5 C          18.6856   33.2592   10.0532 C.ar    1  UNL1        0.1643
      6 C          18.9784   34.9476   11.2672 C.ar    1  UNL1        0.2195
      7 C          17.9442   36.6891   10.0343 C.ar    1  UNL1        0.1882
      8 N          19.3805   32.8641   11.1543 N.ar    1  UNL1       -0.1310
      9 N          19.5677   33.9391   11.9313 N.ar    1  UNL1       -0.1202
     10 N          17.8519   35.4872    9.3975 N.ar    1  UNL1       -0.1399
     11 N          18.4451   34.5669   10.1395 N.ar    1  UNL1       -0.1881
     12 S          18.7874   36.5873   11.5450 S.2     1  UNL1       -0.0111
     13 C          18.2852   32.3794    8.9145 C.3     1  UNL1        0.0677
     14 C          15.8300   32.3679    8.4658 C.3     1  UNL1        0.0005
     15 C          17.1590   33.0061    8.1086 C.3     1  UNL1        0.0080
     16 C          15.6450   39.6335    9.0030 C.ar    1  UNL1        0.0537
     17 C          16.5741   40.6588    8.7835 C.ar    1  UNL1        0.0042
     18 C          16.1820   41.8475    8.1629 C.ar    1  UNL1       -0.0041
     19 C          14.8481   42.0435    7.7634 C.ar    1  UNL1       -0.0228
     20 C          13.9283   40.9986    7.9616 C.ar    1  UNL1       -0.0041
     21 C          14.3208   39.8099    8.5821 C.ar    1  UNL1        0.0042
     22 C          14.4386   43.3051    7.0267 C.3     1  UNL1        0.0189
     23 C          14.1847   42.9722    5.5689 C.3     1  UNL1        0.0044
     24 C          15.5227   44.3703    7.0977 C.3     1  UNL1        0.0044
     25 C          13.1708   43.9078    7.6132 C.3     1  UNL1        0.0044
@<TRIPOS>BOND
     1    14    15    1
     2    15    13    1
     3    13     5    1
     4     6    12   ar
     5     7    12   ar
     6     7     2    1
     7     1    16    1
     8    17    18   ar
     9    19    20   ar
    10    21    16   ar
    11    22    19    1
    12    22    23    1
    13    22    24    1
    14    22    25    1
    15     8     9   ar
    16     2     1   am
    17    11    10   ar
    18    11     5   ar
    19    11     6   ar
    20     5     8   ar
    21     6     9   ar
    22     7    10   ar
    23     1     3    2
    24    16    17   ar
    25    18    19   ar
    26    20    21   ar
    27     2     4    1
@<TRIPOS>MOLECULE
MolPort-010-852-299 41076401 ChemDiv-G952-2104 MCULE-1425239194 PubChem-52095933 ZINC000041076401 ZINC41076401
 25 27 0 0 0
SMALL
GASTEIGER

@<TRIPOS>ATOM
      1 C           9.8112   42.5103    9.7360 C.2     1  UNL1        0.2509
      2 N           8.6527   41.9928    9.0666 N.am    1  UNL1       -0.2592
      3 O           9.8036   43.6712   10.2278 O.2     1  UNL1       -0.2698
      4 H           8.7226   41.0808    8.7026 H       1  UNL1        0.1571
      5 C           3.9825   43.1947    9.4486 C.ar    1  UNL1        0.1643
      6 C           5.5409   44.0222    8.3097 C.ar    1  UNL1        0.2195
      7 C           7.4042   42.6688    8.8743 C.ar    1  UNL1        0.1882
      8 N           3.4751   44.2484    8.7530 N.ar    1  UNL1       -0.1310
      9 N           4.4668   44.7776    8.0246 N.ar    1  UNL1       -0.1202
     10 N           6.2715   42.2760    9.5234 N.ar    1  UNL1       -0.1399
     11 N           5.2775   43.0698    9.1609 N.ar    1  UNL1       -0.1881
     12 S           7.1471   44.0339    7.8381 S.2     1  UNL1       -0.0111
     13 C           3.2223   42.3364   10.4058 C.3     1  UNL1        0.0677
     14 C           3.9385   40.1360   11.3413 C.3     1  UNL1        0.0005
     15 C           3.4366   40.8615   10.1072 C.3     1  UNL1        0.0080
     16 C          11.0218   41.6776    9.8488 C.ar    1  UNL1        0.0537
     17 C          12.0500   41.7878    8.9036 C.ar    1  UNL1        0.0042
     18 C          13.1964   40.9964    9.0102 C.ar    1  UNL1       -0.0041
     19 C          13.3322   40.0653   10.0551 C.ar    1  UNL1       -0.0228
     20 C          12.3086   39.9811   11.0155 C.ar    1  UNL1       -0.0041
     21 C          11.1623   40.7727   10.9087 C.ar    1  UNL1        0.0042
     22 C          14.6069   39.2571   10.2103 C.3     1  UNL1        0.0189
     23 C          14.7629   38.8440   11.6614 C.3     1  UNL1        0.0044
     24 C          15.8319   40.0620    9.8024 C.3     1  UNL1        0.0044
     25 C          14.5810   38.0024    9.3503 C.3     1  UNL1        0.0044
@<TRIPOS>BOND
     1    14    15    1
     2    15    13    1
     3    13     5    1
     4     6    12   ar
     5     7    12   ar
     6     7     2    1
     7     1    16    1
     8    17    18   ar
     9    19    20   ar
    10    21    16   ar
    11    22    19    1
    12    22    23    1
    13    22    24    1
    14    22    25    1
    15     8     9   ar
    16     2     1   am
    17    11    10   ar
    18    11     5   ar
    19    11     6   ar
    20     5     8   ar
    21     6     9   ar
    22     7    10   ar
    23     1     3    2
    24    16    17   ar
    25    18    19   ar
    26    20    21   ar
    27     2     4    1
@<TRIPOS>MOLECULE
MolPort-010-852-299 41076401 ChemDiv-G952-2104 MCULE-1425239194 PubChem-52095933 ZINC000041076401 ZINC41076401
 25 27 0 0 0
SMALL
GASTEIGER

@<TRIPOS>ATOM
      1 C          10.0026   41.8416   10.1857 C.2     1  UNL1        0.2509
      2 N          10.7812   40.7651    9.6445 N.am    1  UNL1       -0.2592
      3 O          10.5575   42.9093   10.5620 O.2     1  UNL1       -0.2698
      4 H          10.2893   39.9574    9.3708 H       1  UNL1        0.1571
      5 C          15.2060   41.8070    7.9903 C.ar    1  UNL1        0.1643
      6 C          14.5530   40.4378    9.4426 C.ar    1  UNL1        0.2195
      7 C          12.2020   40.7463    9.4620 C.ar    1  UNL1        0.1882
      8 N          16.3030   41.1752    8.4893 N.ar    1  UNL1       -0.1310
      9 N          15.8893   40.3002    9.4152 N.ar    1  UNL1       -0.1202
     10 N          12.8173   41.5612    8.5586 N.ar    1  UNL1       -0.1399
     11 N          14.1198   41.3347    8.6007 N.ar    1  UNL1       -0.1881
     12 S          13.3151   39.7355   10.3240 S.2     1  UNL1       -0.0111
     13 C          15.2167   42.8801    6.9514 C.3     1  UNL1        0.0677
     14 C          17.1743   43.9905    5.8722 C.3     1  UNL1        0.0005
     15 C          16.3854   43.8298    7.1580 C.3     1  UNL1        0.0080
     16 C           8.5407   41.6977   10.3037 C.ar    1  UNL1        0.0537
     17 C           7.7385   41.6355    9.1568 C.ar    1  UNL1        0.0042
     18 C           6.3524   41.5012    9.2698 C.ar    1  UNL1       -0.0041
     19 C           5.7366   41.4431   10.5325 C.ar    1  UNL1       -0.0228
     20 C           6.5513   41.4774   11.6781 C.ar    1  UNL1       -0.0041
     21 C           7.9374   41.6116   11.5649 C.ar    1  UNL1        0.0042
     22 C           4.2399   41.2266   10.6541 C.3     1  UNL1        0.0189
     23 C           3.6212   42.4079   11.3767 C.3     1  UNL1        0.0044
     24 C           3.9201   39.9606   11.4350 C.3     1  UNL1        0.0044
     25 C           3.5816   41.0961    9.2886 C.3     1  UNL1        0.0044
@<TRIPOS>BOND
     1    14    15    1
     2    15    13    1
     3    13     5    1
     4     6    12   ar
     5     7    12   ar
     6     7     2    1
     7     1    16    1
     8    17    18   ar
     9    19    20   ar
    10    21    16   ar
    11    22    19    1
    12    22    23    1
    13    22    24    1
    14    22    25    1
    15     8     9   ar
    16     2     1   am
    17    11    10   ar
    18    11     5   ar
    19    11     6   ar
    20     5     8   ar
    21     6     9   ar
    22     7    10   ar
    23     1     3    2
    24    16    17   ar
    25    18    19   ar
    26    20    21   ar
    27     2     4    1
@<TRIPOS>MOLECULE
MolPort-010-852-299 41076401 ChemDiv-G952-2104 MCULE-1425239194 PubChem-52095933 ZINC000041076401 ZINC41076401
 25 27 0 0 0
SMALL
GASTEIGER

@<TRIPOS>ATOM
      1 C           5.6506   41.3195    9.5553 C.2     1  UNL1        0.2509
      2 N           6.9700   41.7155    9.9557 N.am    1  UNL1       -0.2592
      3 O           5.4624   40.7324    8.4555 O.2     1  UNL1       -0.2698
      4 H           7.0504   42.1716   10.8245 H       1  UNL1        0.1571
      5 C          11.3542   40.1086    8.6918 C.ar    1  UNL1        0.1643
      6 C          10.0295   41.4279    7.7352 C.ar    1  UNL1        0.2195
      7 C           8.1824   41.5143    9.2195 C.ar    1  UNL1        0.1882
      8 N          11.9295   40.5004    7.5225 N.ar    1  UNL1       -0.1310
      9 N          11.0871   41.3432    6.9106 N.ar    1  UNL1       -0.1202
     10 N           9.1703   40.6950    9.6796 N.ar    1  UNL1       -0.1399
     11 N          10.1641   40.6968    8.8068 N.ar    1  UNL1       -0.1881
     12 S           8.5674   42.2421    7.6946 S.2     1  UNL1       -0.0111
     13 C          11.9432   39.1489    9.6731 C.3     1  UNL1        0.0677
     14 C          14.1089   39.7492   10.7589 C.3     1  UNL1        0.0005
     15 C          12.5996   39.8838   10.8305 C.3     1  UNL1        0.0080
     16 C           4.5043   41.6025   10.4372 C.ar    1  UNL1        0.0537
     17 C           3.6345   42.6633   10.1527 C.ar    1  UNL1        0.0042
     18 C           2.5493   42.9321   10.9907 C.ar    1  UNL1       -0.0041
     19 C           2.3199   42.1563   12.1407 C.ar    1  UNL1       -0.0228
     20 C           3.1808   41.0760   12.4034 C.ar    1  UNL1       -0.0041
     21 C           4.2659   40.8073   11.5653 C.ar    1  UNL1        0.0042
     22 C           1.1021   42.4042   13.0109 C.3     1  UNL1        0.0189
     23 C           1.1590   41.4922   14.2215 C.3     1  UNL1        0.0044
     24 C          -0.1896   42.1263   12.2564 C.3     1  UNL1        0.0044
     25 C           1.0446   43.8459   13.4937 C.3     1  UNL1        0.0044
@<TRIPOS>BOND
     1    14    15    1
     2    15    13    1
     3    13     5    1
     4     6    12   ar
     5     7    12   ar
     6     7     2    1
     7     1    16    1
     8    17    18   ar
     9    19    20   ar
    10    21    16   ar
    11    22    19    1
    12    22    23    1
    13    22    24    1
    14    22    25    1
    15     8     9   ar
    16     2     1   am
    17    11    10   ar
    18    11     5   ar
    19    11     6   ar
    20     5     8   ar
    21     6     9   ar
    22     7    10   ar
    23     1     3    2
    24    16    17   ar
    25    18    19   ar
    26    20    21   ar
    27     2     4    1
@<TRIPOS>MOLECULE
MolPort-010-852-299 41076401 ChemDiv-G952-2104 MCULE-1425239194 PubChem-52095933 ZINC000041076401 ZINC41076401
 25 27 0 0 0
SMALL
GASTEIGER

@<TRIPOS>ATOM
      1 C           3.5028   41.3268   11.9084 C.2     1  UNL1        0.2509
      2 N           4.5574   42.2406   11.5758 N.am    1  UNL1       -0.2592
      3 O           3.5898   40.1069   11.6020 O.2     1  UNL1       -0.2698
      4 H           4.4285   43.1801   11.8405 H       1  UNL1        0.1571
      5 C           7.7041   41.1434    8.0694 C.ar    1  UNL1        0.1643
      6 C           7.9697   41.4372   10.1317 C.ar    1  UNL1        0.2195
      7 C           5.7791   41.9247   10.8976 C.ar    1  UNL1        0.1882
      8 N           9.0274   40.9864    8.3448 N.ar    1  UNL1       -0.1310
      9 N           9.1996   41.1721    9.6601 N.ar    1  UNL1       -0.1202
     10 N           5.8117   41.6938    9.5543 N.ar    1  UNL1       -0.1399
     11 N           7.0578   41.4280    9.1993 N.ar    1  UNL1       -0.1881
     12 S           7.3396   41.7966   11.6405 S.2     1  UNL1       -0.0111
     13 C           7.0791   41.0467    6.7162 C.3     1  UNL1        0.0677
     14 C           8.1172   38.8046    6.3628 C.3     1  UNL1        0.0005
     15 C           7.9230   40.1931    5.7836 C.3     1  UNL1        0.0080
     16 C           2.3061   41.8186   12.6140 C.ar    1  UNL1        0.0537
     17 C           1.9969   43.1851   12.6199 C.ar    1  UNL1        0.0042
     18 C           0.8633   43.6507   13.2909 C.ar    1  UNL1       -0.0041
     19 C           0.0233   42.7619   13.9848 C.ar    1  UNL1       -0.0228
     20 C           0.3249   41.3889   13.9501 C.ar    1  UNL1       -0.0041
     21 C           1.4585   40.9235   13.2789 C.ar    1  UNL1        0.0042
     22 C          -1.2448   43.2586   14.6534 C.3     1  UNL1        0.0189
     23 C          -1.4165   42.5534   15.9853 C.3     1  UNL1        0.0044
     24 C          -2.4724   42.9822   13.7981 C.3     1  UNL1        0.0044
     25 C          -1.1939   44.7585   14.9033 C.3     1  UNL1        0.0044
@<TRIPOS>BOND
     1    14    15    1
     2    15    13    1
     3    13     5    1
     4     6    12   ar
     5     7    12   ar
     6     7     2    1
     7     1    16    1
     8    17    18   ar
     9    19    20   ar
    10    21    16   ar
    11    22    19    1
    12    22    23    1
    13    22    24    1
    14    22    25    1
    15     8     9   ar
    16     2     1   am
    17    11    10   ar
    18    11     5   ar
    19    11     6   ar
    20     5     8   ar
    21     6     9   ar
    22     7    10   ar
    23     1     3    2
    24    16    17   ar
    25    18    19   ar
    26    20    21   ar
    27     2     4    1
