@<TRIPOS>MOLECULE
MolPort-019-922-109 9206257 CRESQBXCHSKGJZ-UHFFFAOYSA-N CSSS03437093891 MCULE-9939253106 PubChem-16954054 ZINC000009206257
 27 30 0 0 0
SMALL
GASTEIGER

@<TRIPOS>ATOM
      1 N           6.9320   38.9474   14.0761 N.am    1  UNL1       -0.2552
      2 C           6.3099   39.6053   12.9685 C.ar    1  UNL1        0.0543
      3 C           5.0560   39.3812   12.3998 C.ar    1  UNL1        0.0162
      4 C           4.6590   40.2223   11.3349 C.ar    1  UNL1        0.0160
      5 C           5.4996   41.2607   10.8541 C.ar    1  UNL1        0.0506
      6 C           6.7481   41.4854   11.4891 C.ar    1  UNL1        0.0148
      7 C           7.6406   42.5423   11.2164 C.ar    1  UNL1        0.0013
      8 C           8.8330   42.6792   11.9736 C.ar    1  UNL1        0.0002
      9 C           9.1412   41.7761   13.0177 C.ar    1  UNL1        0.0046
     10 C           8.2368   40.7426   13.2587 C.ar    1  UNL1        0.0551
     11 C           7.0992   40.6237   12.5156 C.ar    1  UNL1        0.0193
     12 C           8.1469   39.6899   14.2684 C.2     1  UNL1        0.2528
     13 O           8.9723   39.4803   15.1959 O.2     1  UNL1       -0.2696
     14 N           5.0171   42.0900    9.7890 N.am    1  UNL1       -0.2790
     15 C           5.8344   42.7277    8.8010 C.2     1  UNL1        0.2706
     16 O           7.0342   42.3755    8.6390 O.2     1  UNL1       -0.2680
     17 H           4.0447   42.2327    9.7321 H       1  UNL1        0.1552
     18 N           5.8051   44.1611    6.7762 N.ar    1  UNL1       -0.0727
     19 C           5.2542   43.7626    7.9386 C.ar    1  UNL1        0.1760
     20 C           4.0820   44.4566    8.1930 C.ar    1  UNL1        0.0627
     21 C           4.0027   45.2832    7.0899 C.ar    1  UNL1        0.1550
     22 C           2.9221   46.2695    6.8270 C.3     1  UNL1        0.0754
     23 O           5.0230   45.0782    6.2942 O.2     1  UNL1       -0.3576
     24 C           6.2889   38.0664   15.0428 C.3     1  UNL1        0.0985
     25 C           5.9808   36.7132   14.4193 C.3     1  UNL1        0.0219
     26 C           7.0490   35.7012   14.7853 C.3     1  UNL1        0.0018
     27 C           6.4076   34.3480   15.0057 C.3     1  UNL1        0.0001
@<TRIPOS>BOND
     1     1     2    1
     2    14    15   am
     3    24     1    1
     4    24    25    1
     5    25    26    1
     6    26    27    1
     7     3     4   ar
     8     5     6   ar
     9     5    14    1
    10     7     8   ar
    11     9    10   ar
    12    10    12    1
    13    11     2   ar
    14    11     6   ar
    15    12     1   am
    16    15    19    1
    17    19    20   ar
    18    21    23   ar
    19    22    21    1
    20    23    18   ar
    21     2     3   ar
    22     4     5   ar
    23     6     7   ar
    24     8     9   ar
    25    10    11   ar
    26    12    13    2
    27    15    16    2
    28    19    18   ar
    29    20    21   ar
    30    14    17    1
@<TRIPOS>MOLECULE
MolPort-019-922-109 9206257 CRESQBXCHSKGJZ-UHFFFAOYSA-N CSSS03437093891 MCULE-9939253106 PubChem-16954054 ZINC000009206257
 27 30 0 0 0
SMALL
GASTEIGER

@<TRIPOS>ATOM
      1 N           6.8019   41.0203    8.9440 N.am    1  UNL1       -0.2552
      2 C           7.9420   41.3186    8.1329 C.ar    1  UNL1        0.0543
      3 C           8.1152   41.1529    6.7588 C.ar    1  UNL1        0.0162
      4 C           9.3367   41.5874    6.1945 C.ar    1  UNL1        0.0160
      5 C          10.3568   42.1727    6.9899 C.ar    1  UNL1        0.0506
      6 C          10.1239   42.3653    8.3760 C.ar    1  UNL1        0.0148
      7 C          10.9768   43.0359    9.2764 C.ar    1  UNL1        0.0013
      8 C          10.5880   43.2069   10.6305 C.ar    1  UNL1        0.0002
      9 C           9.3423   42.7263   11.0975 C.ar    1  UNL1        0.0046
     10 C           8.5251   42.0673   10.1799 C.ar    1  UNL1        0.0551
     11 C           8.9194   41.9068    8.8840 C.ar    1  UNL1        0.0193
     12 C           7.1718   41.5188   10.2397 C.2     1  UNL1        0.2528
     13 O           6.4173   41.5157   11.2478 O.2     1  UNL1       -0.2696
     14 N          11.5572   42.6138    6.3422 N.am    1  UNL1       -0.2790
     15 C          12.8861   42.2254    6.7081 C.2     1  UNL1        0.2706
     16 O          13.0774   41.2380    7.4686 O.2     1  UNL1       -0.2680
     17 H          11.4601   43.2343    5.5840 H       1  UNL1        0.1552
     18 N          13.9574   43.7495    5.0696 N.ar    1  UNL1       -0.0727
     19 C          14.0325   42.9521    6.1523 C.ar    1  UNL1        0.1760
     20 C          15.3234   42.9226    6.6551 C.ar    1  UNL1        0.0627
     21 C          15.9829   43.7620    5.7794 C.ar    1  UNL1        0.1550
     22 C          17.4272   44.1082    5.8388 C.3     1  UNL1        0.0754
     23 O          15.1520   44.2191    4.8756 O.2     1  UNL1       -0.3576
     24 C           5.4529   40.7219    8.4795 C.3     1  UNL1        0.0985
     25 C           4.4592   41.7421    9.0147 C.3     1  UNL1        0.0219
     26 C           3.3640   41.0556    9.8074 C.3     1  UNL1        0.0018
     27 C           2.7516   42.0408   10.7797 C.3     1  UNL1        0.0001
@<TRIPOS>BOND
     1     1     2    1
     2    14    15   am
     3    24     1    1
     4    24    25    1
     5    25    26    1
     6    26    27    1
     7     3     4   ar
     8     5     6   ar
     9     5    14    1
    10     7     8   ar
    11     9    10   ar
    12    10    12    1
    13    11     2   ar
    14    11     6   ar
    15    12     1   am
    16    15    19    1
    17    19    20   ar
    18    21    23   ar
    19    22    21    1
    20    23    18   ar
    21     2     3   ar
    22     4     5   ar
    23     6     7   ar
    24     8     9   ar
    25    10    11   ar
    26    12    13    2
    27    15    16    2
    28    19    18   ar
    29    20    21   ar
    30    14    17    1
@<TRIPOS>MOLECULE
MolPort-019-922-109 9206257 CRESQBXCHSKGJZ-UHFFFAOYSA-N CSSS03437093891 MCULE-9939253106 PubChem-16954054 ZINC000009206257
 27 30 0 0 0
SMALL
GASTEIGER

@<TRIPOS>ATOM
      1 N           8.0426   40.9357    7.4041 N.am    1  UNL1       -0.2552
      2 C           9.3981   41.3730    7.2711 C.ar    1  UNL1        0.0543
      3 C          10.2447   41.2991    6.1649 C.ar    1  UNL1        0.0162
      4 C          11.5347   41.8649    6.2872 C.ar    1  UNL1        0.0160
      5 C          11.9626   42.4882    7.4891 C.ar    1  UNL1        0.0506
      6 C          11.0559   42.5832    8.5760 C.ar    1  UNL1        0.0148
      7 C          11.2788   43.2716    9.7861 C.ar    1  UNL1        0.0013
      8 C          10.2555   43.3339   10.7674 C.ar    1  UNL1        0.0002
      9 C           8.9974   42.7256   10.5484 C.ar    1  UNL1        0.0046
     10 C           8.8126   42.0526    9.3413 C.ar    1  UNL1        0.0551
     11 C           9.8107   41.9981    8.4132 C.ar    1  UNL1        0.0193
     12 C           7.6701   41.3905    8.7151 C.2     1  UNL1        0.2528
     13 O           6.5201   41.2683    9.2131 O.2     1  UNL1       -0.2696
     14 N          13.2750   43.0634    7.5286 N.am    1  UNL1       -0.2790
     15 C          13.9078   43.7573    6.4474 C.2     1  UNL1        0.2706
     16 O          13.2328   44.1511    5.4578 O.2     1  UNL1       -0.2680
     17 H          13.7827   42.9742    8.3673 H       1  UNL1        0.1552
     18 N          15.9675   44.9170    5.6937 N.ar    1  UNL1       -0.0727
     19 C          15.3423   44.0549    6.5180 C.ar    1  UNL1        0.1760
     20 C          16.2336   43.5048    7.4253 C.ar    1  UNL1        0.0627
     21 C          17.4165   44.1154    7.0590 C.ar    1  UNL1        0.1550
     22 C          18.7369   43.8958    7.7054 C.3     1  UNL1        0.0754
     23 O          17.2157   44.9266    6.0501 O.2     1  UNL1       -0.3576
     24 C           7.1383   40.5520    6.3273 C.3     1  UNL1        0.0985
     25 C           7.0973   39.0394    6.1693 C.3     1  UNL1        0.0219
     26 C           8.4781   38.4445    6.3662 C.3     1  UNL1        0.0018
     27 C           9.1806   38.3467    5.0291 C.3     1  UNL1        0.0001
@<TRIPOS>BOND
     1     1     2    1
     2    14    15   am
     3    24     1    1
     4    24    25    1
     5    25    26    1
     6    26    27    1
     7     3     4   ar
     8     5     6   ar
     9     5    14    1
    10     7     8   ar
    11     9    10   ar
    12    10    12    1
    13    11     2   ar
    14    11     6   ar
    15    12     1   am
    16    15    19    1
    17    19    20   ar
    18    21    23   ar
    19    22    21    1
    20    23    18   ar
    21     2     3   ar
    22     4     5   ar
    23     6     7   ar
    24     8     9   ar
    25    10    11   ar
    26    12    13    2
    27    15    16    2
    28    19    18   ar
    29    20    21   ar
    30    14    17    1
@<TRIPOS>MOLECULE
MolPort-019-922-109 9206257 CRESQBXCHSKGJZ-UHFFFAOYSA-N CSSS03437093891 MCULE-9939253106 PubChem-16954054 ZINC000009206257
 27 30 0 0 0
SMALL
GASTEIGER

@<TRIPOS>ATOM
      1 N          13.8404   36.7193   11.0941 N.am    1  UNL1       -0.2552
      2 C          13.6767   37.7573   10.1234 C.ar    1  UNL1        0.0543
      3 C          12.5782   38.0416    9.3120 C.ar    1  UNL1        0.0162
      4 C          12.6604   39.1746    8.4702 C.ar    1  UNL1        0.0160
      5 C          13.8155   39.9999    8.4444 C.ar    1  UNL1        0.0506
      6 C          14.8933   39.7031    9.3178 C.ar    1  UNL1        0.0148
      7 C          16.0522   40.4846    9.5026 C.ar    1  UNL1        0.0013
      8 C          17.0270   40.0957   10.4578 C.ar    1  UNL1        0.0002
      9 C          16.8514   38.9356   11.2477 C.ar    1  UNL1        0.0046
     10 C          15.6944   38.1864   11.0374 C.ar    1  UNL1        0.0551
     11 C          14.7722   38.5728   10.1096 C.ar    1  UNL1        0.0193
     12 C          15.1164   37.0113   11.6862 C.2     1  UNL1        0.2528
     13 O          15.6220   36.3704   12.6449 O.2     1  UNL1       -0.2696
     14 N          13.8144   41.1471    7.5848 N.am    1  UNL1       -0.2790
     15 C          14.9554   41.9593    7.2866 C.2     1  UNL1        0.2706
     16 O          16.1184   41.5511    7.5527 O.2     1  UNL1       -0.2680
     17 H          12.9594   41.3969    7.1653 H       1  UNL1        0.1552
     18 N          13.5855   43.6875    6.1499 N.ar    1  UNL1       -0.0727
     19 C          14.7701   43.2530    6.6207 C.ar    1  UNL1        0.1760
     20 C          15.7658   44.1891    6.3917 C.ar    1  UNL1        0.0627
     21 C          15.0636   45.1923    5.7538 C.ar    1  UNL1        0.1550
     22 C          15.6400   46.4727    5.2660 C.3     1  UNL1        0.0754
     23 O          13.8023   44.8591    5.6345 O.2     1  UNL1       -0.3576
     24 C          12.7932   35.8757   11.6566 C.3     1  UNL1        0.0985
     25 C          11.7655   35.5104   10.5958 C.3     1  UNL1        0.0219
     26 C          12.3095   34.4376    9.6726 C.3     1  UNL1        0.0018
     27 C          13.8223   34.4526    9.7179 C.3     1  UNL1        0.0001
@<TRIPOS>BOND
     1     1     2    1
     2    14    15   am
     3    24     1    1
     4    24    25    1
     5    25    26    1
     6    26    27    1
     7     3     4   ar
     8     5     6   ar
     9     5    14    1
    10     7     8   ar
    11     9    10   ar
    12    10    12    1
    13    11     2   ar
    14    11     6   ar
    15    12     1   am
    16    15    19    1
    17    19    20   ar
    18    21    23   ar
    19    22    21    1
    20    23    18   ar
    21     2     3   ar
    22     4     5   ar
    23     6     7   ar
    24     8     9   ar
    25    10    11   ar
    26    12    13    2
    27    15    16    2
    28    19    18   ar
    29    20    21   ar
    30    14    17    1
@<TRIPOS>MOLECULE
MolPort-019-922-109 9206257 CRESQBXCHSKGJZ-UHFFFAOYSA-N CSSS03437093891 MCULE-9939253106 PubChem-16954054 ZINC000009206257
 27 30 0 0 0
SMALL
GASTEIGER

@<TRIPOS>ATOM
      1 N          15.2245   39.2972   10.3517 N.am    1  UNL1       -0.2552
      2 C          13.9107   39.6754    9.9309 C.ar    1  UNL1        0.0543
      3 C          13.4802   40.8658    9.3449 C.ar    1  UNL1        0.0162
      4 C          12.1199   40.9581    8.9703 C.ar    1  UNL1        0.0160
      5 C          11.2163   39.8829    9.1792 C.ar    1  UNL1        0.0506
      6 C          11.7034   38.6726    9.7364 C.ar    1  UNL1        0.0148
      7 C          10.9719   37.4779    9.8960 C.ar    1  UNL1        0.0013
      8 C          11.6062   36.3200   10.4164 C.ar    1  UNL1        0.0002
      9 C          12.9761   36.3353   10.7684 C.ar    1  UNL1        0.0046
     10 C          13.6680   37.5339   10.5984 C.ar    1  UNL1        0.0551
     11 C          13.0389   38.6382   10.1030 C.ar    1  UNL1        0.0193
     12 C          15.0668   37.9272   10.7548 C.2     1  UNL1        0.2528
     13 O          16.0074   37.1830   11.1381 O.2     1  UNL1       -0.2696
     14 N           9.8582   40.0406    8.7484 N.am    1  UNL1       -0.2790
     15 C           9.0173   41.1588    9.0538 C.2     1  UNL1        0.2706
     16 O           9.5123   42.2269    9.5057 O.2     1  UNL1       -0.2680
     17 H           9.4721   39.3217    8.1977 H       1  UNL1        0.1552
     18 N           7.0540   40.6330    7.6310 N.ar    1  UNL1       -0.0727
     19 C           7.5768   41.0756    8.7906 C.ar    1  UNL1        0.1760
     20 C           6.5753   41.4297    9.6804 C.ar    1  UNL1        0.0627
     21 C           5.4394   41.1578    8.9440 C.ar    1  UNL1        0.1550
     22 C           4.0416   41.3533    9.4106 C.3     1  UNL1        0.0754
     23 O           5.7640   40.6976    7.7613 O.2     1  UNL1       -0.3576
     24 C          16.4755   39.9673   10.0193 C.3     1  UNL1        0.0985
     25 C          16.2318   41.1202    9.0568 C.3     1  UNL1        0.0219
     26 C          17.5434   41.7653    8.6536 C.3     1  UNL1        0.0018
     27 C          17.2733   43.1356    8.0702 C.3     1  UNL1        0.0001
@<TRIPOS>BOND
     1     1     2    1
     2    14    15   am
     3    24     1    1
     4    24    25    1
     5    25    26    1
     6    26    27    1
     7     3     4   ar
     8     5     6   ar
     9     5    14    1
    10     7     8   ar
    11     9    10   ar
    12    10    12    1
    13    11     2   ar
    14    11     6   ar
    15    12     1   am
    16    15    19    1
    17    19    20   ar
    18    21    23   ar
    19    22    21    1
    20    23    18   ar
    21     2     3   ar
    22     4     5   ar
    23     6     7   ar
    24     8     9   ar
    25    10    11   ar
    26    12    13    2
    27    15    16    2
    28    19    18   ar
    29    20    21   ar
    30    14    17    1
@<TRIPOS>MOLECULE
MolPort-019-922-109 9206257 CRESQBXCHSKGJZ-UHFFFAOYSA-N CSSS03437093891 MCULE-9939253106 PubChem-16954054 ZINC000009206257
 27 30 0 0 0
SMALL
GASTEIGER

@<TRIPOS>ATOM
      1 N          14.0023   38.6024    9.4149 N.am    1  UNL1       -0.2552
      2 C          12.8265   39.1640    8.8244 C.ar    1  UNL1        0.0543
      3 C          12.3522   39.0455    7.5180 C.ar    1  UNL1        0.0162
      4 C          11.1183   39.6632    7.2096 C.ar    1  UNL1        0.0160
      5 C          10.3808   40.3809    8.1879 C.ar    1  UNL1        0.0506
      6 C          10.8749   40.4398    9.5164 C.ar    1  UNL1        0.0148
      7 C          10.2111   41.0032   10.6254 C.ar    1  UNL1        0.0013
      8 C          10.8006   40.9391   11.9146 C.ar    1  UNL1        0.0002
      9 C          12.0473   40.3016   12.1153 C.ar    1  UNL1        0.0046
     10 C          12.6756   39.7566   10.9962 C.ar    1  UNL1        0.0551
     11 C          12.0961   39.8343    9.7639 C.ar    1  UNL1        0.0193
     12 C          13.8885   38.9652   10.8004 C.2     1  UNL1        0.2528
     13 O          14.6946   38.6095   11.7000 O.2     1  UNL1       -0.2696
     14 N           9.1246   40.9570    7.8072 N.am    1  UNL1       -0.2790
     15 C           8.9350   41.9067    6.7523 C.2     1  UNL1        0.2706
     16 O           9.8391   42.0991    5.8946 O.2     1  UNL1       -0.2680
     17 H           8.3272   40.6769    8.3121 H       1  UNL1        0.1552
     18 N           6.8696   42.5769    5.5522 N.ar    1  UNL1       -0.0727
     19 C           7.6595   42.6224    6.6420 C.ar    1  UNL1        0.1760
     20 C           7.1004   43.4246    7.6239 C.ar    1  UNL1        0.0627
     21 C           5.9314   43.8361    7.0152 C.ar    1  UNL1        0.1550
     22 C           4.9137   44.7346    7.6205 C.3     1  UNL1        0.0754
     23 O           5.8384   43.3205    5.8145 O.2     1  UNL1       -0.3576
     24 C          14.8428   37.5499    8.8577 C.3     1  UNL1        0.0985
     25 C          15.7706   36.9800    9.9202 C.3     1  UNL1        0.0219
     26 C          17.1359   36.6814    9.3321 C.3     1  UNL1        0.0018
     27 C          17.0215   35.5390    8.3457 C.3     1  UNL1        0.0001
@<TRIPOS>BOND
     1     1     2    1
     2    14    15   am
     3    24     1    1
     4    24    25    1
     5    25    26    1
     6    26    27    1
     7     3     4   ar
     8     5     6   ar
     9     5    14    1
    10     7     8   ar
    11     9    10   ar
    12    10    12    1
    13    11     2   ar
    14    11     6   ar
    15    12     1   am
    16    15    19    1
    17    19    20   ar
    18    21    23   ar
    19    22    21    1
    20    23    18   ar
    21     2     3   ar
    22     4     5   ar
    23     6     7   ar
    24     8     9   ar
    25    10    11   ar
    26    12    13    2
    27    15    16    2
    28    19    18   ar
    29    20    21   ar
    30    14    17    1
@<TRIPOS>MOLECULE
MolPort-019-922-109 9206257 CRESQBXCHSKGJZ-UHFFFAOYSA-N CSSS03437093891 MCULE-9939253106 PubChem-16954054 ZINC000009206257
 27 30 0 0 0
SMALL
GASTEIGER

@<TRIPOS>ATOM
      1 N          14.7408   41.9698    7.9682 N.am    1  UNL1       -0.2552
      2 C          13.3381   41.8811    8.2349 C.ar    1  UNL1        0.0543
      3 C          12.2727   42.4834    7.5656 C.ar    1  UNL1        0.0162
      4 C          10.9644   42.1787    8.0070 C.ar    1  UNL1        0.0160
      5 C          10.7330   41.2926    9.0920 C.ar    1  UNL1        0.0506
      6 C          11.8413   40.6653    9.7171 C.ar    1  UNL1        0.0148
      7 C          11.7793   39.6755   10.7192 C.ar    1  UNL1        0.0013
      8 C          12.9731   39.0899   11.2149 C.ar    1  UNL1        0.0002
      9 C          14.2374   39.4720   10.7085 C.ar    1  UNL1        0.0046
     10 C          14.2610   40.4541    9.7191 C.ar    1  UNL1        0.0551
     11 C          13.1029   41.0101    9.2603 C.ar    1  UNL1        0.0193
     12 C          15.3194   41.0434    8.9015 C.2     1  UNL1        0.2528
     13 O          16.5453   40.7621    8.9612 O.2     1  UNL1       -0.2696
     14 N           9.3777   41.0111    9.4648 N.am    1  UNL1       -0.2790
     15 C           8.3652   41.9937    9.7096 C.2     1  UNL1        0.2706
     16 O           8.5315   43.1886    9.3430 O.2     1  UNL1       -0.2680
     17 H           9.1222   40.0651    9.5602 H       1  UNL1        0.1552
     18 N           6.9412   41.4962   11.6795 N.ar    1  UNL1       -0.0727
     19 C           7.1059   41.5936   10.3464 C.ar    1  UNL1        0.1760
     20 C           5.9351   41.2707    9.6793 C.ar    1  UNL1        0.0627
     21 C           5.0871   40.9802   10.7295 C.ar    1  UNL1        0.1550
     22 C           3.6663   40.5628   10.6010 C.3     1  UNL1        0.0754
     23 O           5.7125   41.1240   11.8716 O.2     1  UNL1       -0.3576
     24 C          15.3698   42.4984    6.7643 C.3     1  UNL1        0.0985
     25 C          15.7482   43.9603    6.9497 C.3     1  UNL1        0.0219
     26 C          17.2497   44.1410    6.8406 C.3     1  UNL1        0.0018
     27 C          17.8900   43.8650    8.1841 C.3     1  UNL1        0.0001
@<TRIPOS>BOND
     1     1     2    1
     2    14    15   am
     3    24     1    1
     4    24    25    1
     5    25    26    1
     6    26    27    1
     7     3     4   ar
     8     5     6   ar
     9     5    14    1
    10     7     8   ar
    11     9    10   ar
    12    10    12    1
    13    11     2   ar
    14    11     6   ar
    15    12     1   am
    16    15    19    1
    17    19    20   ar
    18    21    23   ar
    19    22    21    1
    20    23    18   ar
    21     2     3   ar
    22     4     5   ar
    23     6     7   ar
    24     8     9   ar
    25    10    11   ar
    26    12    13    2
    27    15    16    2
    28    19    18   ar
    29    20    21   ar
    30    14    17    1
@<TRIPOS>MOLECULE
MolPort-019-922-109 9206257 CRESQBXCHSKGJZ-UHFFFAOYSA-N CSSS03437093891 MCULE-9939253106 PubChem-16954054 ZINC000009206257
 27 30 0 0 0
SMALL
GASTEIGER

@<TRIPOS>ATOM
      1 N          16.6539   41.3289    8.8858 N.am    1  UNL1       -0.2552
      2 C          15.2551   41.3833    8.5913 C.ar    1  UNL1        0.0543
      3 C          14.5866   42.1237    7.6163 C.ar    1  UNL1        0.0162
      4 C          13.1885   41.9464    7.5018 C.ar    1  UNL1        0.0160
      5 C          12.4811   41.0491    8.3447 C.ar    1  UNL1        0.0506
      6 C          13.2039   40.2808    9.2932 C.ar    1  UNL1        0.0148
      7 C          12.6752   39.2652   10.1161 C.ar    1  UNL1        0.0013
      8 C          13.5301   38.5341   10.9812 C.ar    1  UNL1        0.0002
      9 C          14.9195   38.7957   11.0250 C.ar    1  UNL1        0.0046
     10 C          15.4074   39.8073   10.1987 C.ar    1  UNL1        0.0551
     11 C          14.5686   40.5036    9.3789 C.ar    1  UNL1        0.0193
     12 C          16.7456   40.3092    9.8937 C.2     1  UNL1        0.2528
     13 O          17.8244   39.8938   10.3930 O.2     1  UNL1       -0.2696
     14 N          11.0683   40.9025    8.1509 N.am    1  UNL1       -0.2790
     15 C          10.3409   41.3411    6.9979 C.2     1  UNL1        0.2706
     16 O          10.9488   41.6494    5.9371 O.2     1  UNL1       -0.2680
     17 H          10.5564   40.4648    8.8689 H       1  UNL1        0.1552
     18 N           8.1091   41.7354    5.9883 N.ar    1  UNL1       -0.0727
     19 C           8.8753   41.3826    7.0383 C.ar    1  UNL1        0.1760
     20 C           8.0922   41.0680    8.1374 C.ar    1  UNL1        0.0627
     21 C           6.8200   41.2676    7.6393 C.ar    1  UNL1        0.1550
     22 C           5.5565   41.0759    8.3985 C.3     1  UNL1        0.0754
     23 O           6.8770   41.6543    6.3890 O.2     1  UNL1       -0.3576
     24 C          17.7418   41.8325    8.0567 C.3     1  UNL1        0.0985
     25 C          17.8211   43.3499    8.1324 C.3     1  UNL1        0.0219
     26 C          17.8811   43.9514    6.7418 C.3     1  UNL1        0.0018
     27 C          16.5646   44.6295    6.4283 C.3     1  UNL1        0.0001
@<TRIPOS>BOND
     1     1     2    1
     2    14    15   am
     3    24     1    1
     4    24    25    1
     5    25    26    1
     6    26    27    1
     7     3     4   ar
     8     5     6   ar
     9     5    14    1
    10     7     8   ar
    11     9    10   ar
    12    10    12    1
    13    11     2   ar
    14    11     6   ar
    15    12     1   am
    16    15    19    1
    17    19    20   ar
    18    21    23   ar
    19    22    21    1
    20    23    18   ar
    21     2     3   ar
    22     4     5   ar
    23     6     7   ar
    24     8     9   ar
    25    10    11   ar
    26    12    13    2
    27    15    16    2
    28    19    18   ar
    29    20    21   ar
    30    14    17    1
@<TRIPOS>MOLECULE
MolPort-019-922-109 9206257 CRESQBXCHSKGJZ-UHFFFAOYSA-N CSSS03437093891 MCULE-9939253106 PubChem-16954054 ZINC000009206257
 27 30 0 0 0
SMALL
GASTEIGER

@<TRIPOS>ATOM
      1 N           9.1224   40.9044    5.8757 N.am    1  UNL1       -0.2552
      2 C           8.0036   40.9838    6.7636 C.ar    1  UNL1        0.0543
      3 C           6.6980   40.5280    6.5811 C.ar    1  UNL1        0.0162
      4 C           5.7920   40.6858    7.6551 C.ar    1  UNL1        0.0160
      5 C           6.1875   41.2857    8.8798 C.ar    1  UNL1        0.0506
      6 C           7.5361   41.6949    9.0420 C.ar    1  UNL1        0.0148
      7 C           8.1166   42.1922   10.2268 C.ar    1  UNL1        0.0013
      8 C           9.4994   42.5089   10.2624 C.ar    1  UNL1        0.0002
      9 C          10.3200   42.3199    9.1259 C.ar    1  UNL1        0.0046
     10 C           9.7123   41.8276    7.9716 C.ar    1  UNL1        0.0551
     11 C           8.3800   41.5354    7.9550 C.ar    1  UNL1        0.0193
     12 C          10.2099   41.4229    6.6584 C.2     1  UNL1        0.2528
     13 O          11.4075   41.4717    6.2725 O.2     1  UNL1       -0.2696
     14 N           5.2202   41.3864    9.9329 N.am    1  UNL1       -0.2790
     15 C           3.8422   41.7362    9.7607 C.2     1  UNL1        0.2706
     16 O           3.3152   41.7150    8.6154 O.2     1  UNL1       -0.2680
     17 H           5.5282   41.2000   10.8492 H       1  UNL1        0.1552
     18 N           3.3663   43.0163   11.8320 N.ar    1  UNL1       -0.0727
     19 C           3.0278   42.0721   10.9334 C.ar    1  UNL1        0.1760
     20 C           1.8212   41.4798   11.2704 C.ar    1  UNL1        0.0627
     21 C           1.4938   42.1545   12.4296 C.ar    1  UNL1        0.1550
     22 C           0.2723   41.9256   13.2452 C.3     1  UNL1        0.0754
     23 O           2.4181   43.0367   12.7184 O.2     1  UNL1       -0.3576
     24 C           9.2284   40.0856    4.6745 C.3     1  UNL1        0.0985
     25 C           9.3078   38.6090    5.0324 C.3     1  UNL1        0.0219
     26 C           9.3772   38.4272    6.5361 C.3     1  UNL1        0.0018
     27 C          10.8192   38.5107    6.9884 C.3     1  UNL1        0.0001
@<TRIPOS>BOND
     1     1     2    1
     2    14    15   am
     3    24     1    1
     4    24    25    1
     5    25    26    1
     6    26    27    1
     7     3     4   ar
     8     5     6   ar
     9     5    14    1
    10     7     8   ar
    11     9    10   ar
    12    10    12    1
    13    11     2   ar
    14    11     6   ar
    15    12     1   am
    16    15    19    1
    17    19    20   ar
    18    21    23   ar
    19    22    21    1
    20    23    18   ar
    21     2     3   ar
    22     4     5   ar
    23     6     7   ar
    24     8     9   ar
    25    10    11   ar
    26    12    13    2
    27    15    16    2
    28    19    18   ar
    29    20    21   ar
    30    14    17    1
@<TRIPOS>MOLECULE
MolPort-019-922-109 9206257 CRESQBXCHSKGJZ-UHFFFAOYSA-N CSSS03437093891 MCULE-9939253106 PubChem-16954054 ZINC000009206257
 27 30 0 0 0
SMALL
GASTEIGER

@<TRIPOS>ATOM
      1 N          11.4905   41.4073    8.5913 N.am    1  UNL1       -0.2552
      2 C          10.1309   41.7712    8.8474 C.ar    1  UNL1        0.0543
      3 C           9.1250   42.1174    7.9451 C.ar    1  UNL1        0.0162
      4 C           7.8378   42.3812    8.4673 C.ar    1  UNL1        0.0160
      5 C           7.5687   42.2994    9.8590 C.ar    1  UNL1        0.0506
      6 C           8.6073   41.8998   10.7388 C.ar    1  UNL1        0.0148
      7 C           8.4765   41.6535   12.1209 C.ar    1  UNL1        0.0013
      8 C           9.5926   41.1997   12.8708 C.ar    1  UNL1        0.0002
      9 C          10.8436   40.9725   12.2511 C.ar    1  UNL1        0.0046
     10 C          10.9368   41.2276   10.8835 C.ar    1  UNL1        0.0551
     11 C           9.8544   41.6699   10.1810 C.ar    1  UNL1        0.0193
     12 C          11.9904   41.0422    9.8878 C.2     1  UNL1        0.2528
     13 O          13.1457   40.5918   10.1065 O.2     1  UNL1       -0.2696
     14 N           6.2323   42.5544   10.3108 N.am    1  UNL1       -0.2790
     15 C           5.3817   41.6022   10.9592 C.2     1  UNL1        0.2706
     16 O           5.8586   40.5330   11.4276 O.2     1  UNL1       -0.2680
     17 H           5.8698   43.4577   10.1632 H       1  UNL1        0.1552
     18 N           3.1336   42.2054   10.1004 N.ar    1  UNL1       -0.0727
     19 C           3.9546   41.8986   11.1229 C.ar    1  UNL1        0.1760
     20 C           3.2669   41.9007   12.3260 C.ar    1  UNL1        0.0627
     21 C           1.9906   42.2323   11.9168 C.ar    1  UNL1        0.1550
     22 C           0.8105   42.3817   12.8081 C.3     1  UNL1        0.0754
     23 O           1.9591   42.4000   10.6179 O.2     1  UNL1       -0.3576
     24 C          12.0722   41.0514    7.3030 C.3     1  UNL1        0.0985
     25 C          12.2148   42.2797    6.4167 C.3     1  UNL1        0.0219
     26 C          13.6766   42.6367    6.2304 C.3     1  UNL1        0.0018
     27 C          14.5004   41.9703    7.3114 C.3     1  UNL1        0.0001
@<TRIPOS>BOND
     1     1     2    1
     2    14    15   am
     3    24     1    1
     4    24    25    1
     5    25    26    1
     6    26    27    1
     7     3     4   ar
     8     5     6   ar
     9     5    14    1
    10     7     8   ar
    11     9    10   ar
    12    10    12    1
    13    11     2   ar
    14    11     6   ar
    15    12     1   am
    16    15    19    1
    17    19    20   ar
    18    21    23   ar
    19    22    21    1
    20    23    18   ar
    21     2     3   ar
    22     4     5   ar
    23     6     7   ar
    24     8     9   ar
    25    10    11   ar
    26    12    13    2
    27    15    16    2
    28    19    18   ar
    29    20    21   ar
    30    14    17    1
