@<TRIPOS>MOLECULE
MolPort-046-174-258 1506397468 CSSS00159951851 MCULE-2819532415 PubChem-132418381 ZINC001506397468
 27 29 0 0 0
SMALL
GASTEIGER

@<TRIPOS>ATOM
      1 C          12.0834   40.9221    6.8746 C.2     1  UNL1        0.2520
      2 N          11.4741   39.6648    6.5595 N.am    1  UNL1       -0.2679
      3 O          11.9542   41.9177    6.1133 O.2     1  UNL1       -0.2726
      4 H          11.6318   38.9187    7.1821 H       1  UNL1        0.1563
      5 C          10.6540   39.4015    5.4138 C.ar    1  UNL1        0.1326
      6 C          11.0894   39.2176    4.1143 C.ar    1  UNL1        0.0565
      7 C           9.9132   38.9835    3.4113 C.ar    1  UNL1        0.1230
      8 N           8.8608   39.0282    4.2567 N.ar    1  UNL1       -0.1666
      9 N           9.3195   39.2936    5.4671 N.ar    1  UNL1       -0.2394
     10 C           8.5004   39.3730    6.6749 C.3     1  UNL1        0.1093
     11 C           8.9385   40.5342    7.5811 C.3     1  UNL1        0.0418
     12 C           8.3160   41.8917    7.2050 C.3     1  UNL1        0.0741
     13 C           6.3952   40.7975    6.3648 C.3     1  UNL1        0.0741
     14 C           7.0060   39.3947    6.3208 C.3     1  UNL1        0.0418
     15 C           6.7180   43.0746    5.9731 C.3     1  UNL1        0.0896
     16 N           7.4075   41.8014    6.0602 N.3     1  UNL1       -0.2714
     17 C          12.8533   41.0634    8.1419 C.3     1  UNL1        0.2117
     18 C          13.2861   43.3732    6.1872 C.3     1  UNL1        0.0519
     19 C          14.3492   42.7232    7.0096 C.ar    1  UNL1        0.0604
     20 C          15.7033   43.0287    7.0215 C.ar    1  UNL1        0.0631
     21 C          16.2372   42.1358    7.9449 C.ar    1  UNL1        0.0828
     22 C          17.6670   42.0141    8.3466 C.3     1  UNL1        0.0541
     23 N          15.2650   41.3481    8.4457 N.ar    1  UNL1       -0.1734
     24 N          14.1274   41.7173    7.8800 N.ar    1  UNL1       -0.2457
     25 C          16.4274   44.0541    6.2373 C.2     1  UNL1        0.1758
     26 C          17.6548   43.7146    5.4633 C.3     1  UNL1        0.0773
     27 O          16.0135   45.2426    6.2160 O.2     1  UNL1       -0.2912
@<TRIPOS>BOND
     1    18    19    1
     2    20    21   ar
     3    20    25    1
     4    17    24    1
     5    17     1    1
     6     1     2   am
     7     6     7   ar
     8    10     9    1
     9    10    11    1
    10    11    12    1
    11    12    16    1
    12    13    16    1
    13    13    14    1
    14    14    10    1
    15    15    16    1
    16    22    21    1
    17    26    25    1
    18    24    23   ar
    19    24    19   ar
    20     2     5    1
    21     9     8   ar
    22     9     5   ar
    23    19    20   ar
    24    21    23   ar
    25     1     3    2
    26     5     6   ar
    27     7     8   ar
    28    25    27    2
    29     2     4    1
@<TRIPOS>MOLECULE
MolPort-046-174-258 1506397468 CSSS00159951851 MCULE-2819532415 PubChem-132418381 ZINC001506397468
 27 29 0 0 0
SMALL
GASTEIGER

@<TRIPOS>ATOM
      1 C          11.7246   41.6430    8.3825 C.2     1  UNL1        0.2520
      2 N          10.7311   40.7903    8.9631 N.am    1  UNL1       -0.2679
      3 O          11.8648   42.8350    8.7659 O.2     1  UNL1       -0.2726
      4 H          10.6553   39.8768    8.6039 H       1  UNL1        0.1563
      5 C           9.8378   41.1551   10.0230 C.ar    1  UNL1        0.1326
      6 C          10.0651   41.0071   11.3789 C.ar    1  UNL1        0.0565
      7 C           8.9106   41.5228   11.9566 C.ar    1  UNL1        0.1230
      8 N           8.0674   41.9453   10.9898 N.ar    1  UNL1       -0.1666
      9 N           8.6341   41.7076    9.8201 N.ar    1  UNL1       -0.2394
     10 C           8.0638   42.0686    8.5238 C.3     1  UNL1        0.1093
     11 C           7.0025   41.0543    8.0695 C.3     1  UNL1        0.0418
     12 C           5.5962   41.3223    8.6369 C.3     1  UNL1        0.0741
     13 C           6.0524   43.6414    8.7181 C.3     1  UNL1        0.0741
     14 C           7.5669   43.5219    8.5314 C.3     1  UNL1        0.0418
     15 C           4.1437   42.7810    9.7476 C.3     1  UNL1        0.0896
     16 N           5.5455   42.5123    9.4886 N.3     1  UNL1       -0.2714
     17 C          12.6305   41.0995    7.3323 C.3     1  UNL1        0.2117
     18 C          13.9024   43.3608    5.7161 C.3     1  UNL1        0.0519
     19 C          14.5701   42.5965    6.8111 C.ar    1  UNL1        0.0604
     20 C          15.8698   42.7556    7.2720 C.ar    1  UNL1        0.0631
     21 C          15.9829   41.8057    8.2819 C.ar    1  UNL1        0.0828
     22 C          17.1846   41.5300    9.1187 C.3     1  UNL1        0.0541
     23 N          14.8276   41.1236    8.4099 N.ar    1  UNL1       -0.1734
     24 N          13.9786   41.6152    7.5223 N.ar    1  UNL1       -0.2457
     25 C          16.9075   43.7023    6.8053 C.2     1  UNL1        0.1758
     26 C          18.0023   44.1591    7.7073 C.3     1  UNL1        0.0773
     27 O          16.8771   44.1431    5.6267 O.2     1  UNL1       -0.2912
@<TRIPOS>BOND
     1    18    19    1
     2    20    21   ar
     3    20    25    1
     4    17    24    1
     5    17     1    1
     6     1     2   am
     7     6     7   ar
     8    10     9    1
     9    10    11    1
    10    11    12    1
    11    12    16    1
    12    13    16    1
    13    13    14    1
    14    14    10    1
    15    15    16    1
    16    22    21    1
    17    26    25    1
    18    24    23   ar
    19    24    19   ar
    20     2     5    1
    21     9     8   ar
    22     9     5   ar
    23    19    20   ar
    24    21    23   ar
    25     1     3    2
    26     5     6   ar
    27     7     8   ar
    28    25    27    2
    29     2     4    1
@<TRIPOS>MOLECULE
MolPort-046-174-258 1506397468 CSSS00159951851 MCULE-2819532415 PubChem-132418381 ZINC001506397468
 27 29 0 0 0
SMALL
GASTEIGER

@<TRIPOS>ATOM
      1 C          13.0274   40.2433   10.3195 C.2     1  UNL1        0.2520
      2 N          11.8883   41.0447    9.9859 N.am    1  UNL1       -0.2679
      3 O          13.1053   39.6515   11.4291 O.2     1  UNL1       -0.2726
      4 H          11.8977   41.5007    9.1135 H       1  UNL1        0.1563
      5 C          10.7356   41.2387   10.8156 C.ar    1  UNL1        0.1326
      6 C          10.6185   40.9070   12.1529 C.ar    1  UNL1        0.0565
      7 C           9.3279   41.3124   12.4728 C.ar    1  UNL1        0.1230
      8 N           8.7358   41.8483   11.3835 N.ar    1  UNL1       -0.1666
      9 N           9.5939   41.7887   10.3806 N.ar    1  UNL1       -0.2394
     10 C           9.3527   42.3158    9.0389 C.3     1  UNL1        0.1093
     11 C           9.0747   41.1906    8.0299 C.3     1  UNL1        0.0418
     12 C           7.6051   40.7319    7.9921 C.3     1  UNL1        0.0741
     13 C           6.8948   42.8987    8.6193 C.3     1  UNL1        0.0741
     14 C           8.2689   43.4037    9.0662 C.3     1  UNL1        0.0418
     15 C           5.3827   41.1219    8.6082 C.3     1  UNL1        0.0896
     16 N           6.7537   41.4791    8.9198 N.3     1  UNL1       -0.2714
     17 C          14.1221   40.0789    9.3227 C.3     1  UNL1        0.2117
     18 C          15.9698   42.3052    8.3362 C.3     1  UNL1        0.0519
     19 C          14.6618   41.9290    7.7226 C.ar    1  UNL1        0.0604
     20 C          14.0486   42.5223    6.6275 C.ar    1  UNL1        0.0631
     21 C          12.8667   41.8039    6.4789 C.ar    1  UNL1        0.0828
     22 C          11.8098   42.0252    5.4521 C.3     1  UNL1        0.0541
     23 N          12.7808   40.8492    7.4262 N.ar    1  UNL1       -0.1734
     24 N          13.8743   40.9284    8.1667 N.ar    1  UNL1       -0.2457
     25 C          14.5222   43.6579    5.8047 C.2     1  UNL1        0.1758
     26 C          15.9150   43.7049    5.2767 C.3     1  UNL1        0.0773
     27 O          13.7468   44.6133    5.5396 O.2     1  UNL1       -0.2912
@<TRIPOS>BOND
     1    18    19    1
     2    20    21   ar
     3    20    25    1
     4    17    24    1
     5    17     1    1
     6     1     2   am
     7     6     7   ar
     8    10     9    1
     9    10    11    1
    10    11    12    1
    11    12    16    1
    12    13    16    1
    13    13    14    1
    14    14    10    1
    15    15    16    1
    16    22    21    1
    17    26    25    1
    18    24    23   ar
    19    24    19   ar
    20     2     5    1
    21     9     8   ar
    22     9     5   ar
    23    19    20   ar
    24    21    23   ar
    25     1     3    2
    26     5     6   ar
    27     7     8   ar
    28    25    27    2
    29     2     4    1
@<TRIPOS>MOLECULE
MolPort-046-174-258 1506397468 CSSS00159951851 MCULE-2819532415 PubChem-132418381 ZINC001506397468
 27 29 0 0 0
SMALL
GASTEIGER

@<TRIPOS>ATOM
      1 C          11.5330   41.4269    8.5596 C.2     1  UNL1        0.2520
      2 N          10.5283   40.6435    9.2138 N.am    1  UNL1       -0.2679
      3 O          11.6799   42.6501    8.8235 O.2     1  UNL1       -0.2726
      4 H          10.4479   39.6993    8.9468 H       1  UNL1        0.1563
      5 C           9.6300   41.1186   10.2248 C.ar    1  UNL1        0.1326
      6 C           9.8120   41.0354   11.5930 C.ar    1  UNL1        0.0565
      7 C           8.6748   41.6483   12.1064 C.ar    1  UNL1        0.1230
      8 N           7.8839   42.0624   11.0929 N.ar    1  UNL1       -0.1666
      9 N           8.4666   41.7264    9.9556 N.ar    1  UNL1       -0.2394
     10 C           7.9533   42.0449    8.6249 C.3     1  UNL1        0.1093
     11 C           6.9155   41.0130    8.1561 C.3     1  UNL1        0.0418
     12 C           5.4848   41.2933    8.6523 C.3     1  UNL1        0.0741
     13 C           5.9316   43.6155    8.6812 C.3     1  UNL1        0.0741
     14 C           7.4531   43.4958    8.5652 C.3     1  UNL1        0.0418
     15 C           3.9814   42.7803    9.6520 C.3     1  UNL1        0.0896
     16 N           5.3938   42.5090    9.4634 N.3     1  UNL1       -0.2714
     17 C          12.4423   40.7749    7.5762 C.3     1  UNL1        0.2117
     18 C          15.1888   40.9296    8.9091 C.3     1  UNL1        0.0519
     19 C          14.7211   41.7938    7.7850 C.ar    1  UNL1        0.0604
     20 C          15.4255   42.8176    7.1664 C.ar    1  UNL1        0.0631
     21 C          14.5427   43.2927    6.2020 C.ar    1  UNL1        0.0828
     22 C          14.7812   44.4098    5.2452 C.3     1  UNL1        0.0541
     23 N          13.3877   42.5997    6.2474 N.ar    1  UNL1       -0.1734
     24 N          13.5097   41.6914    7.2016 N.ar    1  UNL1       -0.2457
     25 C          16.7917   43.3076    7.4567 C.2     1  UNL1        0.1758
     26 C          17.6415   42.6632    8.4976 C.3     1  UNL1        0.0773
     27 O          17.2591   44.2897    6.8232 O.2     1  UNL1       -0.2912
@<TRIPOS>BOND
     1    18    19    1
     2    20    21   ar
     3    20    25    1
     4    17    24    1
     5    17     1    1
     6     1     2   am
     7     6     7   ar
     8    10     9    1
     9    10    11    1
    10    11    12    1
    11    12    16    1
    12    13    16    1
    13    13    14    1
    14    14    10    1
    15    15    16    1
    16    22    21    1
    17    26    25    1
    18    24    23   ar
    19    24    19   ar
    20     2     5    1
    21     9     8   ar
    22     9     5   ar
    23    19    20   ar
    24    21    23   ar
    25     1     3    2
    26     5     6   ar
    27     7     8   ar
    28    25    27    2
    29     2     4    1
@<TRIPOS>MOLECULE
MolPort-046-174-258 1506397468 CSSS00159951851 MCULE-2819532415 PubChem-132418381 ZINC001506397468
 27 29 0 0 0
SMALL
GASTEIGER

@<TRIPOS>ATOM
      1 C          13.5214   40.2936   10.0560 C.2     1  UNL1        0.2520
      2 N          12.5028   41.1574    9.5390 N.am    1  UNL1       -0.2679
      3 O          13.2800   39.4924   10.9981 O.2     1  UNL1       -0.2726
      4 H          12.7601   41.7774    8.8188 H       1  UNL1        0.1563
      5 C          11.1400   41.1951    9.9818 C.ar    1  UNL1        0.1326
      6 C          10.6910   41.0293   11.2791 C.ar    1  UNL1        0.0565
      7 C           9.3130   41.1707   11.1629 C.ar    1  UNL1        0.1230
      8 N           8.9866   41.4060    9.8735 N.ar    1  UNL1       -0.1666
      9 N          10.1008   41.4077    9.1632 N.ar    1  UNL1       -0.2394
     10 C          10.1802   41.6800    7.7296 C.3     1  UNL1        0.1093
     11 C          10.5317   40.4148    6.9313 C.3     1  UNL1        0.0418
     12 C           9.3162   39.5357    6.5831 C.3     1  UNL1        0.0741
     13 C           7.9245   41.4473    6.5400 C.3     1  UNL1        0.0741
     14 C           8.9097   42.3887    7.2371 C.3     1  UNL1        0.0418
     15 C           6.9908   39.3104    6.4708 C.3     1  UNL1        0.0896
     16 N           8.0536   40.0952    7.0697 N.3     1  UNL1       -0.2714
     17 C          14.8798   40.3187    9.4452 C.3     1  UNL1        0.2117
     18 C          17.2398   42.1561    8.8143 C.3     1  UNL1        0.0519
     19 C          15.9411   42.1298    8.0784 C.ar    1  UNL1        0.0604
     20 C          15.5678   42.9321    7.0087 C.ar    1  UNL1        0.0631
     21 C          14.2777   42.5070    6.7088 C.ar    1  UNL1        0.0828
     22 C          13.3873   43.0400    5.6395 C.3     1  UNL1        0.0541
     23 N          13.9067   41.5198    7.5480 N.ar    1  UNL1       -0.1734
     24 N          14.9221   41.2944    8.3656 N.ar    1  UNL1       -0.2457
     25 C          16.3437   43.9991    6.3377 C.2     1  UNL1        0.1758
     26 C          17.7020   43.7381    5.7830 C.3     1  UNL1        0.0773
     27 O          15.8626   45.1571    6.2283 O.2     1  UNL1       -0.2912
@<TRIPOS>BOND
     1    18    19    1
     2    20    21   ar
     3    20    25    1
     4    17    24    1
     5    17     1    1
     6     1     2   am
     7     6     7   ar
     8    10     9    1
     9    10    11    1
    10    11    12    1
    11    12    16    1
    12    13    16    1
    13    13    14    1
    14    14    10    1
    15    15    16    1
    16    22    21    1
    17    26    25    1
    18    24    23   ar
    19    24    19   ar
    20     2     5    1
    21     9     8   ar
    22     9     5   ar
    23    19    20   ar
    24    21    23   ar
    25     1     3    2
    26     5     6   ar
    27     7     8   ar
    28    25    27    2
    29     2     4    1
@<TRIPOS>MOLECULE
MolPort-046-174-258 1506397468 CSSS00159951851 MCULE-2819532415 PubChem-132418381 ZINC001506397468
 27 29 0 0 0
SMALL
GASTEIGER

@<TRIPOS>ATOM
      1 C          12.3233   41.0466    8.9960 C.2     1  UNL1        0.2520
      2 N          11.2402   41.8033    8.4432 N.am    1  UNL1       -0.2679
      3 O          12.4124   40.8475   10.2370 O.2     1  UNL1       -0.2726
      4 H          11.2397   41.9440    7.4688 H       1  UNL1        0.1563
      5 C          10.1570   42.3729    9.1894 C.ar    1  UNL1        0.1326
      6 C          10.1940   42.7877   10.5079 C.ar    1  UNL1        0.0565
      7 C           8.9081   43.2668   10.7304 C.ar    1  UNL1        0.1230
      8 N           8.1729   43.1372    9.6048 N.ar    1  UNL1       -0.1666
      9 N           8.9361   42.5836    8.6791 N.ar    1  UNL1       -0.2394
     10 C           8.5263   42.3234    7.3006 C.3     1  UNL1        0.1093
     11 C           9.6782   41.7395    6.4678 C.3     1  UNL1        0.0418
     12 C           9.8299   40.2121    6.5924 C.3     1  UNL1        0.0741
     13 C           7.5073   39.9960    6.9815 C.3     1  UNL1        0.0741
     14 C           7.2448   41.4776    7.2622 C.3     1  UNL1        0.0418
     15 C           8.9291   38.1750    7.3063 C.3     1  UNL1        0.0896
     16 N           8.8252   39.6123    7.4726 N.3     1  UNL1       -0.2714
     17 C          13.3420   40.4556    8.0839 C.3     1  UNL1        0.2117
     18 C          13.3209   42.5399    5.8481 C.3     1  UNL1        0.0519
     19 C          14.4234   42.3382    6.8344 C.ar    1  UNL1        0.0604
     20 C          15.6240   43.0318    6.9024 C.ar    1  UNL1        0.0631
     21 C          16.2803   42.4546    7.9846 C.ar    1  UNL1        0.0828
     22 C          17.6297   42.8125    8.5056 C.3     1  UNL1        0.0541
     23 N          15.5216   41.4789    8.5219 N.ar    1  UNL1       -0.1734
     24 N          14.3987   41.4229    7.8245 N.ar    1  UNL1       -0.2457
     25 C          16.1113   44.1253    6.0320 C.2     1  UNL1        0.1758
     26 C          15.3583   45.4044    5.8990 C.3     1  UNL1        0.0773
     27 O          17.1797   43.9868    5.3811 O.2     1  UNL1       -0.2912
@<TRIPOS>BOND
     1    18    19    1
     2    20    21   ar
     3    20    25    1
     4    17    24    1
     5    17     1    1
     6     1     2   am
     7     6     7   ar
     8    10     9    1
     9    10    11    1
    10    11    12    1
    11    12    16    1
    12    13    16    1
    13    13    14    1
    14    14    10    1
    15    15    16    1
    16    22    21    1
    17    26    25    1
    18    24    23   ar
    19    24    19   ar
    20     2     5    1
    21     9     8   ar
    22     9     5   ar
    23    19    20   ar
    24    21    23   ar
    25     1     3    2
    26     5     6   ar
    27     7     8   ar
    28    25    27    2
    29     2     4    1
@<TRIPOS>MOLECULE
MolPort-046-174-258 1506397468 CSSS00159951851 MCULE-2819532415 PubChem-132418381 ZINC001506397468
 27 29 0 0 0
SMALL
GASTEIGER

@<TRIPOS>ATOM
      1 C          12.0698   41.3814    7.0926 C.2     1  UNL1        0.2520
      2 N          11.0464   40.3798    7.0660 N.am    1  UNL1       -0.2679
      3 O          12.5889   41.8110    6.0279 O.2     1  UNL1       -0.2726
      4 H          10.6977   40.0684    7.9324 H       1  UNL1        0.1563
      5 C          10.4872   39.7927    5.8840 C.ar    1  UNL1        0.1326
      6 C          11.1496   39.5432    4.6961 C.ar    1  UNL1        0.0565
      7 C          10.1708   38.9623    3.8981 C.ar    1  UNL1        0.1230
      8 N           9.0116   38.8802    4.5865 N.ar    1  UNL1       -0.1666
      9 N           9.2109   39.3968    5.7862 N.ar    1  UNL1       -0.2394
     10 C           8.2132   39.4475    6.8530 C.3     1  UNL1        0.1093
     11 C           8.5432   40.5365    7.8859 C.3     1  UNL1        0.0418
     12 C           8.0385   41.9394    7.5003 C.3     1  UNL1        0.0741
     13 C           6.2375   40.9813    6.3038 C.3     1  UNL1        0.0741
     14 C           6.7961   39.5566    6.2708 C.3     1  UNL1        0.0418
     15 C           6.7013   43.2594    6.1073 C.3     1  UNL1        0.0896
     16 N           7.3213   41.9531    6.2238 N.3     1  UNL1       -0.2714
     17 C          12.5022   41.9495    8.4000 C.3     1  UNL1        0.2117
     18 C          11.7185   39.9864   10.6081 C.3     1  UNL1        0.0519
     19 C          13.0943   40.1666   10.0569 C.ar    1  UNL1        0.0604
     20 C          14.2486   39.5044   10.4522 C.ar    1  UNL1        0.0631
     21 C          15.2367   40.0418    9.6339 C.ar    1  UNL1        0.0828
     22 C          16.6859   39.6950    9.6372 C.3     1  UNL1        0.0541
     23 N          14.7056   40.9662    8.8093 N.ar    1  UNL1       -0.1734
     24 N          13.4095   41.0273    9.0678 N.ar    1  UNL1       -0.2457
     25 C          14.4101   38.4726   11.5010 C.2     1  UNL1        0.1758
     26 C          13.7590   37.1373   11.3817 C.3     1  UNL1        0.0773
     27 O          15.1050   38.7128   12.5227 O.2     1  UNL1       -0.2912
@<TRIPOS>BOND
     1    18    19    1
     2    20    21   ar
     3    20    25    1
     4    17    24    1
     5    17     1    1
     6     1     2   am
     7     6     7   ar
     8    10     9    1
     9    10    11    1
    10    11    12    1
    11    12    16    1
    12    13    16    1
    13    13    14    1
    14    14    10    1
    15    15    16    1
    16    22    21    1
    17    26    25    1
    18    24    23   ar
    19    24    19   ar
    20     2     5    1
    21     9     8   ar
    22     9     5   ar
    23    19    20   ar
    24    21    23   ar
    25     1     3    2
    26     5     6   ar
    27     7     8   ar
    28    25    27    2
    29     2     4    1
@<TRIPOS>MOLECULE
MolPort-046-174-258 1506397468 CSSS00159951851 MCULE-2819532415 PubChem-132418381 ZINC001506397468
 27 29 0 0 0
SMALL
GASTEIGER

@<TRIPOS>ATOM
      1 C          11.6111   42.0791    8.2477 C.2     1  UNL1        0.2520
      2 N          10.4208   41.3235    8.5001 N.am    1  UNL1       -0.2679
      3 O          11.9604   43.0187    9.0111 O.2     1  UNL1       -0.2726
      4 H          10.1892   40.6178    7.8538 H       1  UNL1        0.1563
      5 C           9.5385   41.5084    9.6144 C.ar    1  UNL1        0.1326
      6 C           9.8171   41.2309   10.9401 C.ar    1  UNL1        0.0565
      7 C           8.6492   41.5993   11.5980 C.ar    1  UNL1        0.1230
      8 N           7.7500   42.0637   10.7036 N.ar    1  UNL1       -0.1666
      9 N           8.2948   41.9940    9.5019 N.ar    1  UNL1       -0.2394
     10 C           7.6617   42.4523    8.2669 C.3     1  UNL1        0.1093
     11 C           8.6032   42.3095    7.0609 C.3     1  UNL1        0.0418
     12 C           8.5888   40.9107    6.4169 C.3     1  UNL1        0.0741
     13 C           6.3379   40.6111    7.0775 C.3     1  UNL1        0.0741
     14 C           6.2968   41.7762    8.0693 C.3     1  UNL1        0.0418
     15 C           7.5652   38.8157    6.2329 C.3     1  UNL1        0.0896
     16 N           7.6580   39.9924    7.0760 N.3     1  UNL1       -0.2714
     17 C          12.4684   41.7241    7.0825 C.3     1  UNL1        0.2117
     18 C          14.1515   43.9487    5.8328 C.3     1  UNL1        0.0519
     19 C          14.6347   42.9581    6.8398 C.ar    1  UNL1        0.0604
     20 C          15.9151   42.8553    7.3663 C.ar    1  UNL1        0.0631
     21 C          15.8283   41.7790    8.2433 C.ar    1  UNL1        0.0828
     22 C          16.9259   41.2175    9.0801 C.3     1  UNL1        0.0541
     23 N          14.5794   41.2724    8.2353 N.ar    1  UNL1       -0.1734
     24 N          13.8648   41.9975    7.3903 N.ar    1  UNL1       -0.2457
     25 C          17.1065   43.6821    7.0700 C.2     1  UNL1        0.1758
     26 C          17.6177   43.8346    5.6785 C.3     1  UNL1        0.0773
     27 O          17.7141   44.2721    8.0012 O.2     1  UNL1       -0.2912
@<TRIPOS>BOND
     1    18    19    1
     2    20    21   ar
     3    20    25    1
     4    17    24    1
     5    17     1    1
     6     1     2   am
     7     6     7   ar
     8    10     9    1
     9    10    11    1
    10    11    12    1
    11    12    16    1
    12    13    16    1
    13    13    14    1
    14    14    10    1
    15    15    16    1
    16    22    21    1
    17    26    25    1
    18    24    23   ar
    19    24    19   ar
    20     2     5    1
    21     9     8   ar
    22     9     5   ar
    23    19    20   ar
    24    21    23   ar
    25     1     3    2
    26     5     6   ar
    27     7     8   ar
    28    25    27    2
    29     2     4    1
@<TRIPOS>MOLECULE
MolPort-046-174-258 1506397468 CSSS00159951851 MCULE-2819532415 PubChem-132418381 ZINC001506397468
 27 29 0 0 0
SMALL
GASTEIGER

@<TRIPOS>ATOM
      1 C           8.5706   42.3597    8.5487 C.2     1  UNL1        0.2520
      2 N           9.9937   42.2694    8.4145 N.am    1  UNL1       -0.2679
      3 O           7.8032   41.6565    7.8387 O.2     1  UNL1       -0.2726
      4 H          10.5386   42.8621    8.9811 H       1  UNL1        0.1563
      5 C          10.6912   41.3884    7.5246 C.ar    1  UNL1        0.1326
      6 C          10.9444   41.6050    6.1826 C.ar    1  UNL1        0.0565
      7 C          11.6526   40.4709    5.8020 C.ar    1  UNL1        0.1230
      8 N          11.8005   39.6489    6.8635 N.ar    1  UNL1       -0.1666
      9 N          11.2041   40.2092    7.9009 N.ar    1  UNL1       -0.2394
     10 C          11.1850   39.6585    9.2546 C.3     1  UNL1        0.1093
     11 C          11.4970   38.1538    9.2584 C.3     1  UNL1        0.0418
     12 C          13.0017   37.8259    9.2669 C.3     1  UNL1        0.0741
     13 C          13.4494   39.8313   10.4377 C.3     1  UNL1        0.0741
     14 C          12.0847   40.4790   10.1907 C.3     1  UNL1        0.0418
     15 C          15.1999   38.5766    9.5406 C.3     1  UNL1        0.0896
     16 N          13.8431   39.0240    9.2893 N.3     1  UNL1       -0.2714
     17 C           7.9899   43.2753    9.5702 C.3     1  UNL1        0.2117
     18 C           6.0847   41.3232   10.9497 C.3     1  UNL1        0.0519
     19 C           5.6778   42.4322   10.0366 C.ar    1  UNL1        0.0604
     20 C           4.3886   42.7598    9.6392 C.ar    1  UNL1        0.0631
     21 C           4.5682   43.8520    8.7966 C.ar    1  UNL1        0.0828
     22 C           3.5062   44.6069    8.0737 C.3     1  UNL1        0.0541
     23 N           5.8785   44.1511    8.6961 N.ar    1  UNL1       -0.1734
     24 N           6.5387   43.2924    9.4558 N.ar    1  UNL1       -0.2457
     25 C           3.1126   42.1071   10.0085 C.2     1  UNL1        0.1758
     26 C           2.5725   42.1893   11.3950 C.3     1  UNL1        0.0773
     27 O           2.4598   41.4622    9.1469 O.2     1  UNL1       -0.2912
@<TRIPOS>BOND
     1    18    19    1
     2    20    21   ar
     3    20    25    1
     4    17    24    1
     5    17     1    1
     6     1     2   am
     7     6     7   ar
     8    10     9    1
     9    10    11    1
    10    11    12    1
    11    12    16    1
    12    13    16    1
    13    13    14    1
    14    14    10    1
    15    15    16    1
    16    22    21    1
    17    26    25    1
    18    24    23   ar
    19    24    19   ar
    20     2     5    1
    21     9     8   ar
    22     9     5   ar
    23    19    20   ar
    24    21    23   ar
    25     1     3    2
    26     5     6   ar
    27     7     8   ar
    28    25    27    2
    29     2     4    1
@<TRIPOS>MOLECULE
MolPort-046-174-258 1506397468 CSSS00159951851 MCULE-2819532415 PubChem-132418381 ZINC001506397468
 27 29 0 0 0
SMALL
GASTEIGER

@<TRIPOS>ATOM
      1 C          13.7319   42.1452    6.9245 C.2     1  UNL1        0.2520
      2 N          13.6855   41.2258    8.0217 N.am    1  UNL1       -0.2679
      3 O          14.8056   42.7196    6.6007 O.2     1  UNL1       -0.2726
      4 H          12.8119   40.8279    8.2398 H       1  UNL1        0.1563
      5 C          14.8042   40.8363    8.8287 C.ar    1  UNL1        0.1326
      6 C          16.1256   41.1929    8.6316 C.ar    1  UNL1        0.0565
      7 C          16.7866   40.5727    9.6855 C.ar    1  UNL1        0.1230
      8 N          15.8977   39.8989   10.4471 N.ar    1  UNL1       -0.1666
      9 N          14.6995   40.0557    9.9127 N.ar    1  UNL1       -0.2394
     10 C          13.4572   39.5250   10.4705 C.3     1  UNL1        0.1093
     11 C          12.5681   38.9029    9.3824 C.3     1  UNL1        0.0418
     12 C          12.9136   37.4389    9.0521 C.3     1  UNL1        0.0741
     13 C          13.6724   37.1007   11.2663 C.3     1  UNL1        0.0741
     14 C          13.7462   38.5813   11.6473 C.3     1  UNL1        0.0418
     15 C          14.0724   35.4900    9.6265 C.3     1  UNL1        0.0896
     16 N          14.0182   36.9204    9.8616 N.3     1  UNL1       -0.2714
     17 C          12.4968   42.3990    6.1313 C.3     1  UNL1        0.2117
     18 C          10.9608   40.1590    4.7288 C.3     1  UNL1        0.0519
     19 C          10.6725   40.6827    6.0969 C.ar    1  UNL1        0.0604
     20 C           9.6627   40.2711    6.9559 C.ar    1  UNL1        0.0631
     21 C           9.8343   41.0736    8.0792 C.ar    1  UNL1        0.0828
     22 C           9.0090   41.0625    9.3197 C.3     1  UNL1        0.0541
     23 N          10.8751   41.9105    7.8979 N.ar    1  UNL1       -0.1734
     24 N          11.3791   41.6599    6.7006 N.ar    1  UNL1       -0.2457
     25 C           8.6321   39.2307    6.7410 C.2     1  UNL1        0.1758
     26 C           7.2467   39.5865    6.3226 C.3     1  UNL1        0.0773
     27 O           8.9139   38.0163    6.9144 O.2     1  UNL1       -0.2912
@<TRIPOS>BOND
     1    18    19    1
     2    20    21   ar
     3    20    25    1
     4    17    24    1
     5    17     1    1
     6     1     2   am
     7     6     7   ar
     8    10     9    1
     9    10    11    1
    10    11    12    1
    11    12    16    1
    12    13    16    1
    13    13    14    1
    14    14    10    1
    15    15    16    1
    16    22    21    1
    17    26    25    1
    18    24    23   ar
    19    24    19   ar
    20     2     5    1
    21     9     8   ar
    22     9     5   ar
    23    19    20   ar
    24    21    23   ar
    25     1     3    2
    26     5     6   ar
    27     7     8   ar
    28    25    27    2
    29     2     4    1
