@<TRIPOS>MOLECULE
Molport-053-137-419 MCULE-8111636392 PubChem-110093729
 34 37 0 0 0
SMALL
GASTEIGER

@<TRIPOS>ATOM
      1 C          10.0906   43.7931    9.6324 C.2     1  UNL1        0.2297
      2 C           9.1806   41.6084   10.5014 C.3     1  UNL1        0.0934
      3 C           9.6860   40.7626   11.6658 C.3     1  UNL1        0.0219
      4 C          10.8908   39.9352   11.2282 C.3     1  UNL1        0.0094
      5 C          12.0050   40.8534   10.7241 C.3     1  UNL1        0.0602
      6 C          11.5074   41.7215    9.5680 C.3     1  UNL1        0.0993
      7 N          10.2767   42.4070    9.9555 N.am    1  UNL1       -0.2789
      8 O          11.0296   44.4530    9.1108 O.2     1  UNL1       -0.2745
      9 C          13.2106   40.0656   10.3215 C.ar    1  UNL1        0.0617
     10 C          15.4521   40.0694    9.5115 C.ar    1  UNL1        0.1328
     11 C          15.4823   38.6689    9.5575 C.ar    1  UNL1        0.0344
     12 C          14.3572   37.9684    9.9926 C.ar    1  UNL1        0.0041
     13 C          13.2127   38.6653   10.3777 C.ar    1  UNL1        0.0149
     14 N          14.3216   40.7244    9.8932 N.ar    1  UNL1       -0.2348
     15 N          16.5814   40.8376    9.0721 N.pl3   1  UNL1       -0.2821
     16 H          17.4675   40.5012    9.3384 H       1  UNL1        0.1551
     17 C          16.5674   42.0391    8.2897 C.ar    1  UNL1        0.1526
     18 C          15.4922   43.5148    6.7750 C.ar    1  UNL1        0.1210
     19 C          16.6016   44.3607    6.8103 C.ar    1  UNL1        0.1196
     20 C          17.6756   42.8882    8.3223 C.ar    1  UNL1        0.1332
     21 N          15.4994   42.3744    7.5143 N.ar    1  UNL1       -0.2258
     22 N          17.6690   44.0290    7.5831 N.ar    1  UNL1       -0.2378
     23 C           8.7828   44.4755    9.8875 C.3     1  UNL1        0.1071
     24 C           7.3788   41.6697    5.9640 C.3     1  UNL1        0.0161
     25 C           6.9011   42.2611    7.2730 C.3     1  UNL1        0.0459
     26 C           8.1011   42.9259    7.9471 C.3     1  UNL1        0.0366
     27 C           7.7186   43.9429    8.9824 C.2     1  UNL1       -0.0369
     28 C           6.4838   44.4560    9.0383 C.2     1  UNL1       -0.0203
     29 C           5.3630   44.0042    8.1431 C.3     1  UNL1        0.0603
     30 C           4.3625   43.1932    8.9484 C.3     1  UNL1        0.0203
     31 C           4.6477   45.2394    7.6378 C.3     1  UNL1        0.0203
     32 C           6.3864   41.1152    8.1317 C.3     1  UNL1        0.0161
     33 N           5.8367   43.2352    6.9778 N.3     1  UNL1       -0.2982
     34 H           5.0421   42.7286    6.5875 H       1  UNL1        0.1234
@<TRIPOS>BOND
     1    24    25    1
     2    25    26    1
     3    25    32    1
     4    25    33    1
     5    26    27    1
     6    29    28    1
     7    29    33    1
     8    29    30    1
     9    29    31    1
    10    23    27    1
    11    23     1    1
    12     1     7   am
    13     2     7    1
    14     2     3    1
    15     3     4    1
    16     4     5    1
    17     5     6    1
    18     5     9    1
    19     6     7    1
    20    10    14   ar
    21    10    15    1
    22    11    12   ar
    23    13     9   ar
    24    18    21   ar
    25    19    22   ar
    26    20    17   ar
    27    15    17    1
    28    27    28    2
    29     1     8    2
    30     9    14   ar
    31    10    11   ar
    32    12    13   ar
    33    17    21   ar
    34    18    19   ar
    35    20    22   ar
    36    33    34    1
    37    15    16    1
@<TRIPOS>MOLECULE
Molport-053-137-419 MCULE-8111636392 PubChem-110093729
 34 37 0 0 0
SMALL
GASTEIGER

@<TRIPOS>ATOM
      1 C          10.1650   40.8810    7.4450 C.2     1  UNL1        0.2297
      2 C          10.5595   38.6192    8.4867 C.3     1  UNL1        0.0934
      3 C          11.0554   38.2916    9.8915 C.3     1  UNL1        0.0219
      4 C          12.5721   38.4413    9.9599 C.3     1  UNL1        0.0094
      5 C          12.9783   39.8655    9.5789 C.3     1  UNL1        0.0602
      6 C          12.4717   40.2151    8.1793 C.3     1  UNL1        0.0993
      7 N          11.0397   39.9407    8.0865 N.am    1  UNL1       -0.2789
      8 O          10.6090   41.9949    7.0563 O.2     1  UNL1       -0.2745
      9 C          14.4599   40.0457    9.6724 C.ar    1  UNL1        0.0617
     10 C          16.4044   41.2211    8.9531 C.ar    1  UNL1        0.1328
     11 C          17.2038   40.4347    9.7937 C.ar    1  UNL1        0.0344
     12 C          16.6134   39.4444   10.5790 C.ar    1  UNL1        0.0041
     13 C          15.2347   39.2445   10.5220 C.ar    1  UNL1        0.0149
     14 N          15.0611   41.0046    8.9169 N.ar    1  UNL1       -0.2348
     15 N          16.9611   42.2524    8.1253 N.pl3   1  UNL1       -0.2821
     16 H          17.9386   42.3623    8.1643 H       1  UNL1        0.1551
     17 C          16.2569   43.1412    7.2478 C.ar    1  UNL1        0.1526
     18 C          14.3576   43.6849    5.9343 C.ar    1  UNL1        0.1210
     19 C          14.9561   44.8907    5.5663 C.ar    1  UNL1        0.1196
     20 C          16.8524   44.3489    6.8772 C.ar    1  UNL1        0.1332
     21 N          15.0200   42.8380    6.7656 N.ar    1  UNL1       -0.2258
     22 N          16.1903   45.1963    6.0458 N.ar    1  UNL1       -0.2378
     23 C           8.7232   40.5554    7.2081 C.3     1  UNL1        0.1071
     24 C           7.5736   45.1425    8.9038 C.3     1  UNL1        0.0161
     25 C           6.9898   43.7903    8.5537 C.3     1  UNL1        0.0459
     26 C           8.1094   42.9444    7.9476 C.3     1  UNL1        0.0366
     27 C           7.8353   41.4696    7.9901 C.2     1  UNL1       -0.0369
     28 C           6.8937   40.9543    8.7895 C.2     1  UNL1       -0.0203
     29 C           5.9806   41.7975    9.6361 C.3     1  UNL1        0.0603
     30 C           4.5787   41.7757    9.0518 C.3     1  UNL1        0.0203
     31 C           5.9116   41.1675   11.0112 C.3     1  UNL1        0.0203
     32 C           5.8911   44.0188    7.5262 C.3     1  UNL1        0.0161
     33 N           6.4589   43.1840    9.7864 N.3     1  UNL1       -0.2982
     34 H           5.6788   43.7556   10.1108 H       1  UNL1        0.1234
@<TRIPOS>BOND
     1    24    25    1
     2    25    26    1
     3    25    32    1
     4    25    33    1
     5    26    27    1
     6    29    28    1
     7    29    33    1
     8    29    30    1
     9    29    31    1
    10    23    27    1
    11    23     1    1
    12     1     7   am
    13     2     7    1
    14     2     3    1
    15     3     4    1
    16     4     5    1
    17     5     6    1
    18     5     9    1
    19     6     7    1
    20    10    14   ar
    21    10    15    1
    22    11    12   ar
    23    13     9   ar
    24    18    21   ar
    25    19    22   ar
    26    20    17   ar
    27    15    17    1
    28    27    28    2
    29     1     8    2
    30     9    14   ar
    31    10    11   ar
    32    12    13   ar
    33    17    21   ar
    34    18    19   ar
    35    20    22   ar
    36    33    34    1
    37    15    16    1
@<TRIPOS>MOLECULE
Molport-053-137-419 MCULE-8111636392 PubChem-110093729
 34 37 0 0 0
SMALL
GASTEIGER

@<TRIPOS>ATOM
      1 C          10.2949   41.2151   10.5942 C.2     1  UNL1        0.2297
      2 C          10.8120   38.9356    9.6493 C.3     1  UNL1        0.0934
      3 C          11.7501   37.8670   10.2010 C.3     1  UNL1        0.0219
      4 C          13.1942   38.1996    9.8384 C.3     1  UNL1        0.0094
      5 C          13.5748   39.5712   10.3973 C.3     1  UNL1        0.0602
      6 C          12.6308   40.6510    9.8673 C.3     1  UNL1        0.0993
      7 N          11.2437   40.2569   10.1023 N.am    1  UNL1       -0.2789
      8 O          10.6764   42.3692   10.9287 O.2     1  UNL1       -0.2745
      9 C          14.9986   39.9040   10.0834 C.ar    1  UNL1        0.0617
     10 C          16.5452   41.3628    9.0064 C.ar    1  UNL1        0.1328
     11 C          17.6157   40.5806    9.4610 C.ar    1  UNL1        0.0344
     12 C          17.3629   39.4484   10.2356 C.ar    1  UNL1        0.0041
     13 C          16.0494   39.1036   10.5514 C.ar    1  UNL1        0.0149
     14 N          15.2729   41.0031    9.3295 N.ar    1  UNL1       -0.2348
     15 N          16.7502   42.5365    8.2071 N.pl3   1  UNL1       -0.2821
     16 H          17.6136   42.9956    8.3204 H       1  UNL1        0.1551
     17 C          15.8416   43.1174    7.2621 C.ar    1  UNL1        0.1526
     18 C          13.8551   43.0245    5.9686 C.ar    1  UNL1        0.1210
     19 C          14.1363   44.2868    5.4443 C.ar    1  UNL1        0.1196
     20 C          16.1195   44.3805    6.7351 C.ar    1  UNL1        0.1332
     21 N          14.7125   42.4684    6.8645 N.ar    1  UNL1       -0.2258
     22 N          15.2623   44.9373    5.8390 N.ar    1  UNL1       -0.2378
     23 C           8.8410   40.8753   10.7023 C.3     1  UNL1        0.1071
     24 C           5.1240   43.6727    8.8061 C.3     1  UNL1        0.0161
     25 C           6.4865   43.0875    8.5018 C.3     1  UNL1        0.0459
     26 C           7.0005   42.4207    9.7776 C.3     1  UNL1        0.0366
     27 C           8.0808   41.4087    9.5306 C.2     1  UNL1       -0.0369
     28 C           8.2996   40.9001    8.3121 C.2     1  UNL1       -0.0203
     29 C           7.5569   41.3529    7.0853 C.3     1  UNL1        0.0603
     30 C           8.4830   42.1702    6.2012 C.3     1  UNL1        0.0203
     31 C           7.1542   40.1185    6.3063 C.3     1  UNL1        0.0203
     32 C           7.4007   44.2381    8.1073 C.3     1  UNL1        0.0161
     33 N           6.3368   42.1162    7.4049 N.3     1  UNL1       -0.2982
     34 H           6.0517   42.6243    6.5677 H       1  UNL1        0.1234
@<TRIPOS>BOND
     1    24    25    1
     2    25    26    1
     3    25    32    1
     4    25    33    1
     5    26    27    1
     6    29    28    1
     7    29    33    1
     8    29    30    1
     9    29    31    1
    10    23    27    1
    11    23     1    1
    12     1     7   am
    13     2     7    1
    14     2     3    1
    15     3     4    1
    16     4     5    1
    17     5     6    1
    18     5     9    1
    19     6     7    1
    20    10    14   ar
    21    10    15    1
    22    11    12   ar
    23    13     9   ar
    24    18    21   ar
    25    19    22   ar
    26    20    17   ar
    27    15    17    1
    28    27    28    2
    29     1     8    2
    30     9    14   ar
    31    10    11   ar
    32    12    13   ar
    33    17    21   ar
    34    18    19   ar
    35    20    22   ar
    36    33    34    1
    37    15    16    1
@<TRIPOS>MOLECULE
Molport-053-137-419 MCULE-8111636392 PubChem-110093729
 34 37 0 0 0
SMALL
GASTEIGER

@<TRIPOS>ATOM
      1 C          10.8420   41.0772    7.6331 C.2     1  UNL1        0.2297
      2 C          10.7435   38.6925    8.4453 C.3     1  UNL1        0.0934
      3 C          10.9697   38.1571    9.8556 C.3     1  UNL1        0.0219
      4 C          12.4643   38.0546   10.1437 C.3     1  UNL1        0.0094
      5 C          13.1252   39.4252    9.9905 C.3     1  UNL1        0.0602
      6 C          12.8910   39.9834    8.5864 C.3     1  UNL1        0.0993
      7 N          11.4647   39.9521    8.2711 N.am    1  UNL1       -0.2789
      8 O          11.4961   42.1376    7.4410 O.2     1  UNL1       -0.2745
      9 C          14.5862   39.3559   10.3021 C.ar    1  UNL1        0.0617
     10 C          16.7792   40.2065    9.9185 C.ar    1  UNL1        0.1328
     11 C          17.3084   39.2832   10.8304 C.ar    1  UNL1        0.0344
     12 C          16.4568   38.3899   11.4805 C.ar    1  UNL1        0.0041
     13 C          15.0877   38.4219   11.2187 C.ar    1  UNL1        0.0149
     14 N          15.4389   40.2160    9.6817 N.ar    1  UNL1       -0.2348
     15 N          17.6108   41.1466    9.2233 N.pl3   1  UNL1       -0.2821
     16 H          18.5820   41.0449    9.3481 H       1  UNL1        0.1551
     17 C          17.1895   42.2174    8.3677 C.ar    1  UNL1        0.1526
     18 C          15.5531   43.2592    7.0022 C.ar    1  UNL1        0.1210
     19 C          16.4403   44.3023    6.7332 C.ar    1  UNL1        0.1196
     20 C          18.0745   43.2631    8.0961 C.ar    1  UNL1        0.1332
     21 N          15.9465   42.2413    7.8123 N.ar    1  UNL1       -0.2258
     22 N          17.6815   44.2815    7.2860 N.ar    1  UNL1       -0.2378
     23 C           9.4205   41.0110    7.1686 C.3     1  UNL1        0.1071
     24 C           6.7660   41.3722   11.4185 C.3     1  UNL1        0.0161
     25 C           7.4907   42.1779   10.3615 C.3     1  UNL1        0.0459
     26 C           8.1780   41.1922    9.4168 C.3     1  UNL1        0.0366
     27 C           8.5250   41.7846    8.0824 C.2     1  UNL1       -0.0369
     28 C           7.9687   42.9247    7.6556 C.2     1  UNL1       -0.0203
     29 C           7.0306   43.7477    8.4946 C.3     1  UNL1        0.0603
     30 C           7.7314   45.0172    8.9470 C.3     1  UNL1        0.0203
     31 C           5.8650   44.1573    7.6191 C.3     1  UNL1        0.0203
     32 C           8.5291   43.0341   11.0712 C.3     1  UNL1        0.0161
     33 N           6.5002   43.0064    9.6534 N.3     1  UNL1       -0.2982
     34 H           6.1201   43.6825   10.3158 H       1  UNL1        0.1234
@<TRIPOS>BOND
     1    24    25    1
     2    25    26    1
     3    25    32    1
     4    25    33    1
     5    26    27    1
     6    29    28    1
     7    29    33    1
     8    29    30    1
     9    29    31    1
    10    23    27    1
    11    23     1    1
    12     1     7   am
    13     2     7    1
    14     2     3    1
    15     3     4    1
    16     4     5    1
    17     5     6    1
    18     5     9    1
    19     6     7    1
    20    10    14   ar
    21    10    15    1
    22    11    12   ar
    23    13     9   ar
    24    18    21   ar
    25    19    22   ar
    26    20    17   ar
    27    15    17    1
    28    27    28    2
    29     1     8    2
    30     9    14   ar
    31    10    11   ar
    32    12    13   ar
    33    17    21   ar
    34    18    19   ar
    35    20    22   ar
    36    33    34    1
    37    15    16    1
@<TRIPOS>MOLECULE
Molport-053-137-419 MCULE-8111636392 PubChem-110093729
 34 37 0 0 0
SMALL
GASTEIGER

@<TRIPOS>ATOM
      1 C          10.9852   40.7663    9.9439 C.2     1  UNL1        0.2297
      2 C          11.2838   38.2991    9.5192 C.3     1  UNL1        0.0934
      3 C          11.9028   37.2444   10.4309 C.3     1  UNL1        0.0219
      4 C          13.4248   37.3086   10.3484 C.3     1  UNL1        0.0094
      5 C          13.9155   38.7008   10.7479 C.3     1  UNL1        0.0602
      6 C          13.2885   39.7712    9.8542 C.3     1  UNL1        0.0993
      7 N          11.8359   39.6151    9.8364 N.am    1  UNL1       -0.2789
      8 O          11.4836   41.9032   10.1631 O.2     1  UNL1       -0.2745
      9 C          15.4084   38.7772   10.7079 C.ar    1  UNL1        0.0617
     10 C          17.3558   39.9422    9.9794 C.ar    1  UNL1        0.1328
     11 C          18.1724   38.9817   10.5917 C.ar    1  UNL1        0.0344
     12 C          17.5891   37.9100   11.2677 C.ar    1  UNL1        0.0041
     13 C          16.2004   37.8021   11.3292 C.ar    1  UNL1        0.0149
     14 N          16.0029   39.8125   10.0549 N.ar    1  UNL1       -0.2348
     15 N          17.9045   41.0633    9.2719 N.pl3   1  UNL1       -0.2821
     16 H          18.8825   41.1686    9.3133 H       1  UNL1        0.1551
     17 C          17.1918   42.0481    8.5114 C.ar    1  UNL1        0.1526
     18 C          15.3080   42.7178    7.2344 C.ar    1  UNL1        0.1210
     19 C          15.8731   43.9822    7.0622 C.ar    1  UNL1        0.1196
     20 C          17.7539   43.3145    8.3368 C.ar    1  UNL1        0.1332
     21 N          15.9786   41.7800    7.9541 N.ar    1  UNL1       -0.2258
     22 N          17.0836   44.2529    7.6172 N.ar    1  UNL1       -0.2378
     23 C           9.5020   40.6470    9.7807 C.3     1  UNL1        0.1071
     24 C          10.6775   40.7034    4.8967 C.3     1  UNL1        0.0161
     25 C           9.5427   40.4876    5.8751 C.3     1  UNL1        0.0459
     26 C          10.1296   40.5412    7.2855 C.3     1  UNL1        0.0366
     27 C           9.1081   40.8205    8.3488 C.2     1  UNL1       -0.0369
     28 C           7.9031   41.3200    8.0493 C.2     1  UNL1       -0.0203
     29 C           7.4381   41.5591    6.6393 C.3     1  UNL1        0.0603
     30 C           6.3860   40.5284    6.2675 C.3     1  UNL1        0.0203
     31 C           6.7783   42.9212    6.5942 C.3     1  UNL1        0.0203
     32 C           8.9597   39.1089    5.6024 C.3     1  UNL1        0.0161
     33 N           8.5431   41.5482    5.6633 N.3     1  UNL1       -0.2982
     34 H           8.1436   41.4267    4.7327 H       1  UNL1        0.1234
@<TRIPOS>BOND
     1    24    25    1
     2    25    26    1
     3    25    32    1
     4    25    33    1
     5    26    27    1
     6    29    28    1
     7    29    33    1
     8    29    30    1
     9    29    31    1
    10    23    27    1
    11    23     1    1
    12     1     7   am
    13     2     7    1
    14     2     3    1
    15     3     4    1
    16     4     5    1
    17     5     6    1
    18     5     9    1
    19     6     7    1
    20    10    14   ar
    21    10    15    1
    22    11    12   ar
    23    13     9   ar
    24    18    21   ar
    25    19    22   ar
    26    20    17   ar
    27    15    17    1
    28    27    28    2
    29     1     8    2
    30     9    14   ar
    31    10    11   ar
    32    12    13   ar
    33    17    21   ar
    34    18    19   ar
    35    20    22   ar
    36    33    34    1
    37    15    16    1
@<TRIPOS>MOLECULE
Molport-053-137-419 MCULE-8111636392 PubChem-110093729
 34 37 0 0 0
SMALL
GASTEIGER

@<TRIPOS>ATOM
      1 C          12.6973   40.5560    8.4992 C.2     1  UNL1        0.2297
      2 C          13.2593   39.6147   10.7696 C.3     1  UNL1        0.0934
      3 C          14.6094   39.1364   11.2941 C.3     1  UNL1        0.0219
      4 C          14.9006   37.7283   10.7842 C.3     1  UNL1        0.0094
      5 C          14.8955   37.7107    9.2550 C.3     1  UNL1        0.0602
      6 C          13.5540   38.2058    8.7139 C.3     1  UNL1        0.0993
      7 N          13.2226   39.4965    9.3130 N.am    1  UNL1       -0.2789
      8 O          12.6217   40.4155    7.2488 O.2     1  UNL1       -0.2745
      9 C          15.2132   36.3463    8.7316 C.ar    1  UNL1        0.0617
     10 C          16.4927   34.9995    7.2386 C.ar    1  UNL1        0.1328
     11 C          15.8520   33.8466    7.7126 C.ar    1  UNL1        0.0344
     12 C          14.8816   33.9567    8.7086 C.ar    1  UNL1        0.0041
     13 C          14.5565   35.2106    9.2243 C.ar    1  UNL1        0.0149
     14 N          16.1560   36.2110    7.7597 N.ar    1  UNL1       -0.2348
     15 N          17.4974   34.9418    6.2159 N.pl3   1  UNL1       -0.2821
     16 H          18.2294   34.2993    6.3598 H       1  UNL1        0.1551
     17 C          17.5577   35.7125    5.0083 C.ar    1  UNL1        0.1526
     18 C          16.5793   36.4830    2.9892 C.ar    1  UNL1        0.1210
     19 C          17.7350   37.2123    2.7063 C.ar    1  UNL1        0.1196
     20 C          18.7125   36.4437    4.7217 C.ar    1  UNL1        0.1332
     21 N          16.5160   35.7503    4.1321 N.ar    1  UNL1       -0.2258
     22 N          18.7762   37.1768    3.5788 N.ar    1  UNL1       -0.2378
     23 C          12.2141   41.8328    9.1133 C.3     1  UNL1        0.1071
     24 C           8.4540   41.2082   12.3859 C.3     1  UNL1        0.0161
     25 C           8.8236   41.8358   11.0587 C.3     1  UNL1        0.0459
     26 C          10.3240   41.6306   10.8504 C.3     1  UNL1        0.0366
     27 C          10.7522   41.7576    9.4177 C.2     1  UNL1       -0.0369
     28 C           9.8691   41.6952    8.4139 C.2     1  UNL1       -0.0203
     29 C           8.3849   41.5838    8.6287 C.3     1  UNL1        0.0603
     30 C           7.7177   42.9011    8.2727 C.3     1  UNL1        0.0203
     31 C           7.8569   40.5327    7.6752 C.3     1  UNL1        0.0203
     32 C           8.5058   43.3209   11.1509 C.3     1  UNL1        0.0161
     33 N           8.0348   41.1791   10.0025 N.3     1  UNL1       -0.2982
     34 H           7.0511   41.3996   10.1575 H       1  UNL1        0.1234
@<TRIPOS>BOND
     1    24    25    1
     2    25    26    1
     3    25    32    1
     4    25    33    1
     5    26    27    1
     6    29    28    1
     7    29    33    1
     8    29    30    1
     9    29    31    1
    10    23    27    1
    11    23     1    1
    12     1     7   am
    13     2     7    1
    14     2     3    1
    15     3     4    1
    16     4     5    1
    17     5     6    1
    18     5     9    1
    19     6     7    1
    20    10    14   ar
    21    10    15    1
    22    11    12   ar
    23    13     9   ar
    24    18    21   ar
    25    19    22   ar
    26    20    17   ar
    27    15    17    1
    28    27    28    2
    29     1     8    2
    30     9    14   ar
    31    10    11   ar
    32    12    13   ar
    33    17    21   ar
    34    18    19   ar
    35    20    22   ar
    36    33    34    1
    37    15    16    1
@<TRIPOS>MOLECULE
Molport-053-137-419 MCULE-8111636392 PubChem-110093729
 34 37 0 0 0
SMALL
GASTEIGER

@<TRIPOS>ATOM
      1 C           9.7874   41.3839    6.3723 C.2     1  UNL1        0.2297
      2 C          10.6860   40.1545    8.3816 C.3     1  UNL1        0.0934
      3 C          11.3938   40.7231    9.6074 C.3     1  UNL1        0.0219
      4 C          12.8593   40.9987    9.2854 C.3     1  UNL1        0.0094
      5 C          12.9662   41.9785    8.1162 C.3     1  UNL1        0.0602
      6 C          12.2448   41.4302    6.8846 C.3     1  UNL1        0.0993
      7 N          10.8806   41.0449    7.2387 N.am    1  UNL1       -0.2789
      8 O           9.9837   42.1082    5.3594 O.2     1  UNL1       -0.2745
      9 C          14.3951   42.2908    7.8046 C.ar    1  UNL1        0.0617
     10 C          16.6984   41.9431    8.3088 C.ar    1  UNL1        0.1328
     11 C          17.0668   42.8249    7.2836 C.ar    1  UNL1        0.0344
     12 C          16.0790   43.4416    6.5157 C.ar    1  UNL1        0.0041
     13 C          14.7345   43.1769    6.7732 C.ar    1  UNL1        0.0149
     14 N          15.3785   41.7027    8.5386 N.ar    1  UNL1       -0.2348
     15 N          17.6742   41.2829    9.1275 N.pl3   1  UNL1       -0.2821
     16 H          18.5285   41.7556    9.2542 H       1  UNL1        0.1551
     17 C          17.5480   40.0135    9.7823 C.ar    1  UNL1        0.1526
     18 C          18.4608   37.9336   10.4668 C.ar    1  UNL1        0.1210
     19 C          17.2424   37.5914   11.0550 C.ar    1  UNL1        0.1196
     20 C          16.3304   39.6674   10.3721 C.ar    1  UNL1        0.1332
     21 N          18.5867   39.1352    9.8445 N.ar    1  UNL1       -0.2258
     22 N          16.2039   38.4657   10.9948 N.ar    1  UNL1       -0.2378
     23 C           8.4054   40.8741    6.6390 C.3     1  UNL1        0.1071
     24 C           6.0180   41.2721   11.0412 C.3     1  UNL1        0.0161
     25 C           6.8659   42.0291   10.0413 C.3     1  UNL1        0.0459
     26 C           7.2983   41.0413    8.9579 C.3     1  UNL1        0.0366
     27 C           7.7235   41.7030    7.6798 C.2     1  UNL1       -0.0369
     28 C           7.4108   42.9765    7.4120 C.2     1  UNL1       -0.0203
     29 C           6.6955   43.8712    8.3864 C.3     1  UNL1        0.0603
     30 C           7.6643   44.9035    8.9368 C.3     1  UNL1        0.0203
     31 C           5.6184   44.6159    7.6262 C.3     1  UNL1        0.0203
     32 C           8.0839   42.5592   10.7832 C.3     1  UNL1        0.0161
     33 N           6.0541   43.1241    9.4838 N.3     1  UNL1       -0.2982
     34 H           5.8471   43.7808   10.2364 H       1  UNL1        0.1234
@<TRIPOS>BOND
     1    24    25    1
     2    25    26    1
     3    25    32    1
     4    25    33    1
     5    26    27    1
     6    29    28    1
     7    29    33    1
     8    29    30    1
     9    29    31    1
    10    23    27    1
    11    23     1    1
    12     1     7   am
    13     2     7    1
    14     2     3    1
    15     3     4    1
    16     4     5    1
    17     5     6    1
    18     5     9    1
    19     6     7    1
    20    10    14   ar
    21    10    15    1
    22    11    12   ar
    23    13     9   ar
    24    18    21   ar
    25    19    22   ar
    26    20    17   ar
    27    15    17    1
    28    27    28    2
    29     1     8    2
    30     9    14   ar
    31    10    11   ar
    32    12    13   ar
    33    17    21   ar
    34    18    19   ar
    35    20    22   ar
    36    33    34    1
    37    15    16    1
@<TRIPOS>MOLECULE
Molport-053-137-419 MCULE-8111636392 PubChem-110093729
 34 37 0 0 0
SMALL
GASTEIGER

@<TRIPOS>ATOM
      1 C          12.5590   39.8431    9.9550 C.2     1  UNL1        0.2297
      2 C          11.7758   37.4563   10.1699 C.3     1  UNL1        0.0934
      3 C          12.4942   36.2727   10.8101 C.3     1  UNL1        0.0219
      4 C          13.5326   35.7065    9.8465 C.3     1  UNL1        0.0094
      5 C          14.5426   36.7895    9.4650 C.3     1  UNL1        0.0602
      6 C          13.8348   37.9913    8.8385 C.3     1  UNL1        0.0993
      7 N          12.7537   38.4418    9.7121 N.am    1  UNL1       -0.2789
      8 O          13.3836   40.6839    9.5052 O.2     1  UNL1       -0.2745
      9 C          15.5915   36.2478    8.5471 C.ar    1  UNL1        0.0617
     10 C          16.1305   35.2895    6.4325 C.ar    1  UNL1        0.1328
     11 C          17.4834   35.2282    6.7932 C.ar    1  UNL1        0.0344
     12 C          17.8841   35.6851    8.0487 C.ar    1  UNL1        0.0041
     13 C          16.9375   36.1985    8.9343 C.ar    1  UNL1        0.0149
     14 N          15.2274   35.7954    7.3164 N.ar    1  UNL1       -0.2348
     15 N          15.6657   34.8331    5.1541 N.pl3   1  UNL1       -0.2821
     16 H          14.8034   34.3580    5.1482 H       1  UNL1        0.1551
     17 C          16.3130   34.9895    3.8843 C.ar    1  UNL1        0.1526
     18 C          17.3956   34.0745    1.9821 C.ar    1  UNL1        0.1210
     19 C          17.5466   35.3560    1.4504 C.ar    1  UNL1        0.1196
     20 C          16.4659   36.2703    3.3489 C.ar    1  UNL1        0.1332
     21 N          16.7831   33.9196    3.1853 N.ar    1  UNL1       -0.2258
     22 N          17.0784   36.4258    2.1454 N.ar    1  UNL1       -0.2378
     23 C          11.3730   40.3348   10.7248 C.3     1  UNL1        0.1071
     24 C           6.7013   42.0205    9.9689 C.3     1  UNL1        0.0161
     25 C           8.0579   41.8548    9.3178 C.3     1  UNL1        0.0459
     26 C           9.0202   41.3226   10.3796 C.3     1  UNL1        0.0366
     27 C          10.2414   40.6661    9.8055 C.2     1  UNL1       -0.0369
     28 C          10.2923   40.2774    8.5258 C.2     1  UNL1       -0.0203
     29 C           9.1856   40.5380    7.5414 C.3     1  UNL1        0.0603
     30 C           9.6203   41.6105    6.5576 C.3     1  UNL1        0.0203
     31 C           8.9556   39.2643    6.7557 C.3     1  UNL1        0.0203
     32 C           8.5085   43.2286    8.8438 C.3     1  UNL1        0.0161
     33 N           7.9178   40.9144    8.1931 N.3     1  UNL1       -0.2982
     34 H           7.3162   41.3460    7.4915 H       1  UNL1        0.1234
@<TRIPOS>BOND
     1    24    25    1
     2    25    26    1
     3    25    32    1
     4    25    33    1
     5    26    27    1
     6    29    28    1
     7    29    33    1
     8    29    30    1
     9    29    31    1
    10    23    27    1
    11    23     1    1
    12     1     7   am
    13     2     7    1
    14     2     3    1
    15     3     4    1
    16     4     5    1
    17     5     6    1
    18     5     9    1
    19     6     7    1
    20    10    14   ar
    21    10    15    1
    22    11    12   ar
    23    13     9   ar
    24    18    21   ar
    25    19    22   ar
    26    20    17   ar
    27    15    17    1
    28    27    28    2
    29     1     8    2
    30     9    14   ar
    31    10    11   ar
    32    12    13   ar
    33    17    21   ar
    34    18    19   ar
    35    20    22   ar
    36    33    34    1
    37    15    16    1
@<TRIPOS>MOLECULE
Molport-053-137-419 MCULE-8111636392 PubChem-110093729
 34 37 0 0 0
SMALL
GASTEIGER

@<TRIPOS>ATOM
      1 C          11.7988   38.7675    8.5294 C.2     1  UNL1        0.2297
      2 C          11.1004   41.1889    8.4561 C.3     1  UNL1        0.0934
      3 C          11.4251   42.2417    7.4011 C.3     1  UNL1        0.0219
      4 C          12.8310   42.7906    7.6242 C.3     1  UNL1        0.0094
      5 C          13.8546   41.6560    7.5657 C.3     1  UNL1        0.0602
      6 C          13.5312   40.5830    8.6058 C.3     1  UNL1        0.0993
      7 N          12.1394   40.1605    8.4672 N.am    1  UNL1       -0.2789
      8 O          12.7074   37.8961    8.5942 O.2     1  UNL1       -0.2745
      9 C          15.2450   42.1758    7.7474 C.ar    1  UNL1        0.0617
     10 C          17.4786   41.7684    8.4722 C.ar    1  UNL1        0.1328
     11 C          17.8439   43.0734    8.1146 C.ar    1  UNL1        0.0344
     12 C          16.8899   43.9316    7.5676 C.ar    1  UNL1        0.0041
     13 C          15.5822   43.4857    7.3808 C.ar    1  UNL1        0.0149
     14 N          16.1949   41.3592    8.2790 N.ar    1  UNL1       -0.2348
     15 N          18.4205   40.8461    9.0384 N.pl3   1  UNL1       -0.2821
     16 H          19.3723   41.0730    8.9291 H       1  UNL1        0.1551
     17 C          18.1347   39.6317    9.7452 C.ar    1  UNL1        0.1526
     18 C          18.5656   37.3420   10.1920 C.ar    1  UNL1        0.1210
     19 C          17.5374   37.3317   11.1356 C.ar    1  UNL1        0.1196
     20 C          17.1066   39.6173   10.6902 C.ar    1  UNL1        0.1332
     21 N          18.8413   38.4899    9.5186 N.ar    1  UNL1       -0.2258
     22 N          16.8304   38.4695   11.3640 N.ar    1  UNL1       -0.2378
     23 C          10.3694   38.3228    8.5377 C.3     1  UNL1        0.1071
     24 C           6.2003   39.7692    6.1368 C.3     1  UNL1        0.0161
     25 C           7.7118   39.8502    6.1120 C.3     1  UNL1        0.0459
     26 C           8.2332   39.1789    7.3824 C.3     1  UNL1        0.0366
     27 C           9.6698   38.7551    7.2890 C.2     1  UNL1       -0.0369
     28 C          10.2955   38.6533    6.1103 C.2     1  UNL1       -0.0203
     29 C           9.6559   39.0326    4.8031 C.3     1  UNL1        0.0603
     30 C          10.2748   40.3202    4.2872 C.3     1  UNL1        0.0203
     31 C           9.9696   37.9420    3.8007 C.3     1  UNL1        0.0203
     32 C           8.0907   41.3238    6.1048 C.3     1  UNL1        0.0161
     33 N           8.1906   39.1634    4.9003 N.3     1  UNL1       -0.2982
     34 H           7.8641   39.6875    4.0884 H       1  UNL1        0.1234
@<TRIPOS>BOND
     1    24    25    1
     2    25    26    1
     3    25    32    1
     4    25    33    1
     5    26    27    1
     6    29    28    1
     7    29    33    1
     8    29    30    1
     9    29    31    1
    10    23    27    1
    11    23     1    1
    12     1     7   am
    13     2     7    1
    14     2     3    1
    15     3     4    1
    16     4     5    1
    17     5     6    1
    18     5     9    1
    19     6     7    1
    20    10    14   ar
    21    10    15    1
    22    11    12   ar
    23    13     9   ar
    24    18    21   ar
    25    19    22   ar
    26    20    17   ar
    27    15    17    1
    28    27    28    2
    29     1     8    2
    30     9    14   ar
    31    10    11   ar
    32    12    13   ar
    33    17    21   ar
    34    18    19   ar
    35    20    22   ar
    36    33    34    1
    37    15    16    1
@<TRIPOS>MOLECULE
Molport-053-137-419 MCULE-8111636392 PubChem-110093729
 34 37 0 0 0
SMALL
GASTEIGER

@<TRIPOS>ATOM
      1 C          10.0049   40.9547    7.0016 C.2     1  UNL1        0.2297
      2 C          10.7756   39.4490    8.8712 C.3     1  UNL1        0.0934
      3 C          11.4656   39.8299   10.1771 C.3     1  UNL1        0.0219
      4 C          12.9526   40.0688    9.9337 C.3     1  UNL1        0.0094
      5 C          13.1450   41.1757    8.8963 C.3     1  UNL1        0.0602
      6 C          12.4425   40.8163    7.5867 C.3     1  UNL1        0.0993
      7 N          11.0506   40.4597    7.8514 N.am    1  UNL1       -0.2789
      8 O          10.2695   41.7850    6.0907 O.2     1  UNL1       -0.2745
      9 C          14.5968   41.4516    8.6667 C.ar    1  UNL1        0.0617
     10 C          16.8593   41.0257    9.2830 C.ar    1  UNL1        0.1328
     11 C          17.3065   41.9165    8.2977 C.ar    1  UNL1        0.0344
     12 C          16.3787   42.5774    7.4926 C.ar    1  UNL1        0.0041
     13 C          15.0155   42.3476    7.6738 C.ar    1  UNL1        0.0149
     14 N          15.5228   40.8200    9.4383 N.ar    1  UNL1       -0.2348
     15 N          17.7712   40.3206   10.1373 N.pl3   1  UNL1       -0.2821
     16 H          18.2061   40.8515   10.8431 H       1  UNL1        0.1551
     17 C          18.1218   38.9314   10.0808 C.ar    1  UNL1        0.1526
     18 C          19.5302   37.1772    9.3278 C.ar    1  UNL1        0.1210
     19 C          18.7427   36.2501   10.0118 C.ar    1  UNL1        0.1196
     20 C          17.3362   38.0005   10.7640 C.ar    1  UNL1        0.1332
     21 N          19.2031   38.4954    9.3773 N.ar    1  UNL1       -0.2258
     22 N          17.6630   36.6820   10.7149 N.ar    1  UNL1       -0.2378
     23 C           8.5925   40.4859    7.1640 C.3     1  UNL1        0.1071
     24 C           7.9541   45.0620    9.1362 C.3     1  UNL1        0.0161
     25 C           7.2237   43.8105    8.6981 C.3     1  UNL1        0.0459
     26 C           8.2471   42.8798    8.0477 C.3     1  UNL1        0.0366
     27 C           7.8048   41.4467    7.9957 C.2     1  UNL1       -0.0369
     28 C           6.7991   40.9954    8.7549 C.2     1  UNL1       -0.0203
     29 C           5.9773   41.8849    9.6466 C.3     1  UNL1        0.0603
     30 C           4.5905   42.0611    9.0527 C.3     1  UNL1        0.0203
     31 C           5.8173   41.1837   10.9791 C.3     1  UNL1        0.0203
     32 C           6.1729   44.2272    7.6796 C.3     1  UNL1        0.0161
     33 N           6.6096   43.1950    9.8867 N.3     1  UNL1       -0.2982
     34 H           5.8959   43.8317   10.2411 H       1  UNL1        0.1234
@<TRIPOS>BOND
     1    24    25    1
     2    25    26    1
     3    25    32    1
     4    25    33    1
     5    26    27    1
     6    29    28    1
     7    29    33    1
     8    29    30    1
     9    29    31    1
    10    23    27    1
    11    23     1    1
    12     1     7   am
    13     2     7    1
    14     2     3    1
    15     3     4    1
    16     4     5    1
    17     5     6    1
    18     5     9    1
    19     6     7    1
    20    10    14   ar
    21    10    15    1
    22    11    12   ar
    23    13     9   ar
    24    18    21   ar
    25    19    22   ar
    26    20    17   ar
    27    15    17    1
    28    27    28    2
    29     1     8    2
    30     9    14   ar
    31    10    11   ar
    32    12    13   ar
    33    17    21   ar
    34    18    19   ar
    35    20    22   ar
    36    33    34    1
    37    15    16    1
