@<TRIPOS>MOLECULE
MolPort-008-385-482 10773408 CSSS00160349912 MCULE-6486063186 PubChem-41656383 ZINC000010773408 ZINC10773408
 25 27 0 0 0
SMALL
GASTEIGER

@<TRIPOS>ATOM
      1 C           8.9940   41.5370    7.3653 C.ar    1  UNL1        0.1127
      2 C          11.3786   41.8224    7.3630 C.ar    1  UNL1        0.1880
      3 N           9.5217   41.6497    6.1245 N.ar    1  UNL1       -0.1440
      4 N          10.8439   41.8094    6.1238 N.ar    1  UNL1       -0.1256
      5 S          10.1897   41.6284    8.5458 S.2     1  UNL1       -0.0347
      6 C          13.6490   42.9306    6.9476 C.2     1  UNL1        0.2509
      7 O          13.1952   43.7343    6.0885 O.2     1  UNL1       -0.2698
      8 N          12.7844   41.9822    7.5888 N.am    1  UNL1       -0.2592
      9 H          13.1982   41.3813    8.2498 H       1  UNL1        0.1571
     10 C          15.0804   42.9655    7.2957 C.ar    1  UNL1        0.0537
     11 C          15.9001   44.0005    6.8218 C.ar    1  UNL1        0.0045
     12 C          17.2583   44.0345    7.1515 C.ar    1  UNL1        0.0001
     13 C          17.8071   43.0336    7.9575 C.ar    1  UNL1        0.0000
     14 C          16.9981   41.9986    8.4340 C.ar    1  UNL1        0.0001
     15 C          15.6399   41.9646    8.1045 C.ar    1  UNL1        0.0045
     16 C           7.5394   41.3410    7.6637 C.3     1  UNL1        0.0593
     17 C           6.8543   42.6043    8.1790 C.3     1  UNL1        0.0363
     18 C           4.5590   43.2557    9.0013 C.ar    1  UNL1        0.1347
     19 C           5.5692   42.2846    8.8788 C.ar    1  UNL1        0.0122
     20 C           5.3663   40.9978    9.3952 C.ar    1  UNL1       -0.0013
     21 C           4.1726   40.6783   10.0459 C.ar    1  UNL1       -0.0001
     22 C           3.1717   41.6421   10.1803 C.ar    1  UNL1        0.0031
     23 C           3.3626   42.9241    9.6596 C.ar    1  UNL1        0.0366
     24 C           3.8310   45.1485    7.5788 C.3     1  UNL1        0.2525
     25 O           4.7570   44.5332    8.4639 O.3     1  UNL1       -0.4717
@<TRIPOS>BOND
     1    24    25    1
     2    18    25    1
     3    19    20   ar
     4    17    19    1
     5    17    16    1
     6    16     1    1
     7     1     5   ar
     8     2     8    1
     9     2     5   ar
    10     6    10    1
    11    11    12   ar
    12    13    14   ar
    13    15    10   ar
    14    21    22   ar
    15    23    18   ar
    16     3     4   ar
    17     8     6   am
    18    18    19   ar
    19     1     3   ar
    20     2     4   ar
    21     6     7    2
    22    10    11   ar
    23    12    13   ar
    24    14    15   ar
    25    20    21   ar
    26    22    23   ar
    27     8     9    1
@<TRIPOS>MOLECULE
MolPort-008-385-482 10773408 CSSS00160349912 MCULE-6486063186 PubChem-41656383 ZINC000010773408 ZINC10773408
 25 27 0 0 0
SMALL
GASTEIGER

@<TRIPOS>ATOM
      1 C          11.7283   37.7270    3.7614 C.ar    1  UNL1        0.1127
      2 C           9.9027   39.0417    4.6022 C.ar    1  UNL1        0.1880
      3 N          10.5163   37.1657    3.5456 N.ar    1  UNL1       -0.1440
      4 N           9.5043   37.8945    4.0132 N.ar    1  UNL1       -0.1256
      5 S          11.5830   39.2001    4.5619 S.2     1  UNL1       -0.0347
      6 C           8.8293   40.2889    6.5637 C.2     1  UNL1        0.2509
      7 O           9.5571   39.7297    7.4283 O.2     1  UNL1       -0.2698
      8 N           8.9745   39.9724    5.1720 N.am    1  UNL1       -0.2592
      9 H           8.3766   40.4416    4.5461 H       1  UNL1        0.1571
     10 C           7.8202   41.2758    6.9868 C.ar    1  UNL1        0.0537
     11 C           7.6994   42.4998    6.3122 C.ar    1  UNL1        0.0045
     12 C           6.7423   43.4368    6.7128 C.ar    1  UNL1        0.0001
     13 C           5.8989   43.1570    7.7912 C.ar    1  UNL1        0.0000
     14 C           6.0122   41.9404    8.4692 C.ar    1  UNL1        0.0001
     15 C           6.9691   41.0032    8.0686 C.ar    1  UNL1        0.0045
     16 C          13.0359   37.1335    3.3359 C.3     1  UNL1        0.0593
     17 C          13.9274   36.7350    4.5094 C.3     1  UNL1        0.0363
     18 C          16.0111   35.8093    3.4277 C.ar    1  UNL1        0.1347
     19 C          14.8253   35.5907    4.1521 C.ar    1  UNL1        0.0122
     20 C          14.4889   34.2946    4.5649 C.ar    1  UNL1       -0.0013
     21 C          15.3161   33.2152    4.2468 C.ar    1  UNL1       -0.0001
     22 C          16.4879   33.4255    3.5180 C.ar    1  UNL1        0.0031
     23 C          16.8351   34.7159    3.1113 C.ar    1  UNL1        0.0366
     24 C          17.7015   37.5393    2.8929 C.3     1  UNL1        0.2525
     25 O          16.3548   37.1090    3.0369 O.3     1  UNL1       -0.4717
@<TRIPOS>BOND
     1    24    25    1
     2    18    25    1
     3    19    20   ar
     4    17    19    1
     5    17    16    1
     6    16     1    1
     7     1     5   ar
     8     2     8    1
     9     2     5   ar
    10     6    10    1
    11    11    12   ar
    12    13    14   ar
    13    15    10   ar
    14    21    22   ar
    15    23    18   ar
    16     3     4   ar
    17     8     6   am
    18    18    19   ar
    19     1     3   ar
    20     2     4   ar
    21     6     7    2
    22    10    11   ar
    23    12    13   ar
    24    14    15   ar
    25    20    21   ar
    26    22    23   ar
    27     8     9    1
@<TRIPOS>MOLECULE
MolPort-008-385-482 10773408 CSSS00160349912 MCULE-6486063186 PubChem-41656383 ZINC000010773408 ZINC10773408
 25 27 0 0 0
SMALL
GASTEIGER

@<TRIPOS>ATOM
      1 C          11.7617   40.9250    8.4068 C.ar    1  UNL1        0.1127
      2 C           9.3861   40.9297    8.7594 C.ar    1  UNL1        0.1880
      3 N          11.0519   40.6162    7.2970 N.ar    1  UNL1       -0.1440
      4 N           9.7346   40.6176    7.4934 N.ar    1  UNL1       -0.1256
      5 S          10.7462   41.2269    9.7143 S.2     1  UNL1       -0.0347
      6 C           7.2712   42.1741    9.4902 C.2     1  UNL1        0.2509
      7 O           7.8062   43.3121    9.3977 O.2     1  UNL1       -0.2698
      8 N           8.0193   40.9887    9.1849 N.am    1  UNL1       -0.2592
      9 H           7.5464   40.1301    9.2769 H       1  UNL1        0.1571
     10 C           5.8651   42.0607    9.9163 C.ar    1  UNL1        0.0537
     11 C           4.8517   42.7109    9.1966 C.ar    1  UNL1        0.0045
     12 C           3.5175   42.6040    9.6001 C.ar    1  UNL1        0.0001
     13 C           3.1866   41.8461   10.7266 C.ar    1  UNL1        0.0000
     14 C           4.1895   41.1951   11.4496 C.ar    1  UNL1        0.0001
     15 C           5.5238   41.3018   11.0462 C.ar    1  UNL1        0.0045
     16 C          13.2557   41.0060    8.4739 C.3     1  UNL1        0.0593
     17 C          13.8695   41.7899    7.3165 C.3     1  UNL1        0.0363
     18 C          15.6878   43.5320    7.1505 C.ar    1  UNL1        0.1347
     19 C          15.2325   42.3043    7.6643 C.ar    1  UNL1        0.0122
     20 C          16.0499   41.5634    8.5284 C.ar    1  UNL1       -0.0013
     21 C          17.3216   42.0290    8.8695 C.ar    1  UNL1       -0.0001
     22 C          17.7826   43.2411    8.3528 C.ar    1  UNL1        0.0031
     23 C          16.9698   43.9901    7.4987 C.ar    1  UNL1        0.0366
     24 C          14.8516   44.1190    4.8939 C.3     1  UNL1        0.2525
     25 O          14.8589   44.2799    6.3058 O.3     1  UNL1       -0.4717
@<TRIPOS>BOND
     1    24    25    1
     2    18    25    1
     3    19    20   ar
     4    17    19    1
     5    17    16    1
     6    16     1    1
     7     1     5   ar
     8     2     8    1
     9     2     5   ar
    10     6    10    1
    11    11    12   ar
    12    13    14   ar
    13    15    10   ar
    14    21    22   ar
    15    23    18   ar
    16     3     4   ar
    17     8     6   am
    18    18    19   ar
    19     1     3   ar
    20     2     4   ar
    21     6     7    2
    22    10    11   ar
    23    12    13   ar
    24    14    15   ar
    25    20    21   ar
    26    22    23   ar
    27     8     9    1
@<TRIPOS>MOLECULE
MolPort-008-385-482 10773408 CSSS00160349912 MCULE-6486063186 PubChem-41656383 ZINC000010773408 ZINC10773408
 25 27 0 0 0
SMALL
GASTEIGER

@<TRIPOS>ATOM
      1 C          15.9250   34.1683    6.7022 C.ar    1  UNL1        0.1127
      2 C          14.6373   36.0845    7.3638 C.ar    1  UNL1        0.1880
      3 N          16.1044   35.2414    5.8979 N.ar    1  UNL1       -0.1440
      4 N          15.3890   36.3034    6.2644 N.ar    1  UNL1       -0.1256
      5 S          14.8405   34.5115    7.9423 S.2     1  UNL1       -0.0347
      6 C          14.0360   37.8362    9.1317 C.2     1  UNL1        0.2509
      7 O          15.0763   37.6292    9.8134 O.2     1  UNL1       -0.2698
      8 N          13.7927   37.0952    7.9276 N.am    1  UNL1       -0.2592
      9 H          12.9627   37.3017    7.4401 H       1  UNL1        0.1571
     10 C          13.0611   38.8478    9.5761 C.ar    1  UNL1        0.0537
     11 C          12.1830   38.5694   10.6340 C.ar    1  UNL1        0.0045
     12 C          11.2578   39.5285   11.0564 C.ar    1  UNL1        0.0001
     13 C          11.2034   40.7733   10.4238 C.ar    1  UNL1        0.0000
     14 C          12.0741   41.0594    9.3690 C.ar    1  UNL1        0.0001
     15 C          12.9995   40.1004    8.9466 C.ar    1  UNL1        0.0045
     16 C          16.6073   32.8458    6.5320 C.3     1  UNL1        0.0593
     17 C          18.1301   32.9516    6.5099 C.3     1  UNL1        0.0363
     18 C          18.6726   32.9697    8.9745 C.ar    1  UNL1        0.1347
     19 C          18.6501   33.6365    7.7362 C.ar    1  UNL1        0.0122
     20 C          19.1390   34.9463    7.6402 C.ar    1  UNL1       -0.0013
     21 C          19.6335   35.6000    8.7709 C.ar    1  UNL1       -0.0001
     22 C          19.6471   34.9465   10.0044 C.ar    1  UNL1        0.0031
     23 C          19.1705   33.6375   10.1062 C.ar    1  UNL1        0.0366
     24 C          16.8411   31.3352    9.3066 C.3     1  UNL1        0.2525
     25 O          18.2042   31.6532    9.0612 O.3     1  UNL1       -0.4717
@<TRIPOS>BOND
     1    24    25    1
     2    18    25    1
     3    19    20   ar
     4    17    19    1
     5    17    16    1
     6    16     1    1
     7     1     5   ar
     8     2     8    1
     9     2     5   ar
    10     6    10    1
    11    11    12   ar
    12    13    14   ar
    13    15    10   ar
    14    21    22   ar
    15    23    18   ar
    16     3     4   ar
    17     8     6   am
    18    18    19   ar
    19     1     3   ar
    20     2     4   ar
    21     6     7    2
    22    10    11   ar
    23    12    13   ar
    24    14    15   ar
    25    20    21   ar
    26    22    23   ar
    27     8     9    1
@<TRIPOS>MOLECULE
MolPort-008-385-482 10773408 CSSS00160349912 MCULE-6486063186 PubChem-41656383 ZINC000010773408 ZINC10773408
 25 27 0 0 0
SMALL
GASTEIGER

@<TRIPOS>ATOM
      1 C          11.6755   37.9263    3.7827 C.ar    1  UNL1        0.1127
      2 C           9.8407   39.1804    4.6931 C.ar    1  UNL1        0.1880
      3 N          10.4802   37.3066    3.6481 N.ar    1  UNL1       -0.1440
      4 N           9.4632   38.0018    4.1543 N.ar    1  UNL1       -0.1256
      5 S          11.5073   39.4118    4.5553 S.2     1  UNL1       -0.0347
      6 C           8.7163   40.3118    6.6958 C.2     1  UNL1        0.2509
      7 O           9.4100   39.6896    7.5452 O.2     1  UNL1       -0.2698
      8 N           8.9036   40.0836    5.2919 N.am    1  UNL1       -0.2592
      9 H           8.3311   40.5991    4.6788 H       1  UNL1        0.1571
     10 C           7.7037   41.2816    7.1493 C.ar    1  UNL1        0.0537
     11 C           6.9895   41.0581    8.3358 C.ar    1  UNL1        0.0045
     12 C           6.0287   41.9776    8.7669 C.ar    1  UNL1        0.0001
     13 C           5.7746   43.1275    8.0146 C.ar    1  UNL1        0.0000
     14 C           6.4812   43.3582    6.8313 C.ar    1  UNL1        0.0001
     15 C           7.4421   42.4389    6.4002 C.ar    1  UNL1        0.0045
     16 C          12.9835   37.3803    3.2988 C.3     1  UNL1        0.0593
     17 C          13.6448   36.4294    4.2934 C.3     1  UNL1        0.0363
     18 C          15.4619   34.6960    4.0439 C.ar    1  UNL1        0.1347
     19 C          15.0051   36.0089    3.8287 C.ar    1  UNL1        0.0122
     20 C          15.8184   36.9286    3.1532 C.ar    1  UNL1       -0.0013
     21 C          17.0876   36.5541    2.7068 C.ar    1  UNL1       -0.0001
     22 C          17.5501   35.2558    2.9284 C.ar    1  UNL1        0.0031
     23 C          16.7414   34.3304    3.5923 C.ar    1  UNL1        0.0366
     24 C          14.3392   32.4913    4.1648 C.3     1  UNL1        0.2525
     25 O          14.6369   33.7739    4.6990 O.3     1  UNL1       -0.4717
@<TRIPOS>BOND
     1    24    25    1
     2    18    25    1
     3    19    20   ar
     4    17    19    1
     5    17    16    1
     6    16     1    1
     7     1     5   ar
     8     2     8    1
     9     2     5   ar
    10     6    10    1
    11    11    12   ar
    12    13    14   ar
    13    15    10   ar
    14    21    22   ar
    15    23    18   ar
    16     3     4   ar
    17     8     6   am
    18    18    19   ar
    19     1     3   ar
    20     2     4   ar
    21     6     7    2
    22    10    11   ar
    23    12    13   ar
    24    14    15   ar
    25    20    21   ar
    26    22    23   ar
    27     8     9    1
@<TRIPOS>MOLECULE
MolPort-008-385-482 10773408 CSSS00160349912 MCULE-6486063186 PubChem-41656383 ZINC000010773408 ZINC10773408
 25 27 0 0 0
SMALL
GASTEIGER

@<TRIPOS>ATOM
      1 C           9.5303   40.3654    6.0578 C.ar    1  UNL1        0.1127
      2 C          11.8176   41.0012    6.4213 C.ar    1  UNL1        0.1880
      3 N          10.1573   40.7857    4.9349 N.ar    1  UNL1       -0.1440
      4 N          11.4253   41.1395    5.1373 N.ar    1  UNL1       -0.1256
      5 S          10.5628   40.4134    7.3858 S.2     1  UNL1       -0.0347
      6 C          13.7824   42.6066    6.7636 C.2     1  UNL1        0.2509
      7 O          13.1763   43.5910    6.2601 O.2     1  UNL1       -0.2698
      8 N          13.1437   41.3254    6.8560 N.am    1  UNL1       -0.2592
      9 H          13.6689   40.5962    7.2581 H       1  UNL1        0.1571
     10 C          15.1593   42.7737    7.2612 C.ar    1  UNL1        0.0537
     11 C          15.9335   43.8690    6.8503 C.ar    1  UNL1        0.0045
     12 C          17.2399   44.0283    7.3218 C.ar    1  UNL1        0.0001
     13 C          17.7822   43.0934    8.2076 C.ar    1  UNL1        0.0000
     14 C          17.0184   41.9992    8.6221 C.ar    1  UNL1        0.0001
     15 C          15.7119   41.8398    8.1509 C.ar    1  UNL1        0.0045
     16 C           8.1078   39.9009    6.1227 C.3     1  UNL1        0.0593
     17 C           7.4301   40.2183    7.4533 C.3     1  UNL1        0.0363
     18 C           7.5091   42.3069    8.8677 C.ar    1  UNL1        0.1347
     19 C           7.2362   41.6927    7.6321 C.ar    1  UNL1        0.0122
     20 C           6.8005   42.4677    6.5489 C.ar    1  UNL1       -0.0013
     21 C           6.6194   43.8449    6.6938 C.ar    1  UNL1       -0.0001
     22 C           6.8775   44.4572    7.9214 C.ar    1  UNL1        0.0031
     23 C           7.3216   43.6930    9.0030 C.ar    1  UNL1        0.0366
     24 C           7.4652   41.6759   11.2627 C.3     1  UNL1        0.2525
     25 O           7.9661   41.5322    9.9407 O.3     1  UNL1       -0.4717
@<TRIPOS>BOND
     1    24    25    1
     2    18    25    1
     3    19    20   ar
     4    17    19    1
     5    17    16    1
     6    16     1    1
     7     1     5   ar
     8     2     8    1
     9     2     5   ar
    10     6    10    1
    11    11    12   ar
    12    13    14   ar
    13    15    10   ar
    14    21    22   ar
    15    23    18   ar
    16     3     4   ar
    17     8     6   am
    18    18    19   ar
    19     1     3   ar
    20     2     4   ar
    21     6     7    2
    22    10    11   ar
    23    12    13   ar
    24    14    15   ar
    25    20    21   ar
    26    22    23   ar
    27     8     9    1
@<TRIPOS>MOLECULE
MolPort-008-385-482 10773408 CSSS00160349912 MCULE-6486063186 PubChem-41656383 ZINC000010773408 ZINC10773408
 25 27 0 0 0
SMALL
GASTEIGER

@<TRIPOS>ATOM
      1 C          10.8382   41.5270    6.2793 C.ar    1  UNL1        0.1127
      2 C           8.5850   41.6560    7.1003 C.ar    1  UNL1        0.1880
      3 N           9.9085   41.5646    5.2970 N.ar    1  UNL1       -0.1440
      4 N           8.6590   41.6347    5.7528 N.ar    1  UNL1       -0.1256
      5 S          10.1199   41.5876    7.7999 S.2     1  UNL1       -0.0347
      6 C           7.1553   41.9285    9.2068 C.2     1  UNL1        0.2509
      7 O           8.1513   42.0580    9.9691 O.2     1  UNL1       -0.2698
      8 N           7.3355   41.7298    7.7975 N.am    1  UNL1       -0.2592
      9 H           6.5192   41.6346    7.2554 H       1  UNL1        0.1571
     10 C           5.7941   41.9811    9.7687 C.ar    1  UNL1        0.0537
     11 C           4.7672   42.6415    9.0780 C.ar    1  UNL1        0.0045
     12 C           3.4755   42.6920    9.6103 C.ar    1  UNL1        0.0001
     13 C           3.2009   42.0825   10.8374 C.ar    1  UNL1        0.0000
     14 C           4.2177   41.4225   11.5325 C.ar    1  UNL1        0.0001
     15 C           5.5095   41.3718   11.0002 C.ar    1  UNL1        0.0045
     16 C          12.3177   41.4561    6.0571 C.3     1  UNL1        0.0593
     17 C          13.1316   41.8315    7.2930 C.3     1  UNL1        0.0363
     18 C          15.5447   42.5502    7.4630 C.ar    1  UNL1        0.1347
     19 C          14.2528   42.7631    6.9491 C.ar    1  UNL1        0.0122
     20 C          14.0134   43.8429    6.0885 C.ar    1  UNL1       -0.0013
     21 C          15.0471   44.7193    5.7511 C.ar    1  UNL1       -0.0001
     22 C          16.3282   44.5190    6.2679 C.ar    1  UNL1        0.0031
     23 C          16.5770   43.4393    7.1185 C.ar    1  UNL1        0.0366
     24 C          16.9537   41.3421    9.1035 C.3     1  UNL1        0.2525
     25 O          15.7844   41.4571    8.3042 O.3     1  UNL1       -0.4717
@<TRIPOS>BOND
     1    24    25    1
     2    18    25    1
     3    19    20   ar
     4    17    19    1
     5    17    16    1
     6    16     1    1
     7     1     5   ar
     8     2     8    1
     9     2     5   ar
    10     6    10    1
    11    11    12   ar
    12    13    14   ar
    13    15    10   ar
    14    21    22   ar
    15    23    18   ar
    16     3     4   ar
    17     8     6   am
    18    18    19   ar
    19     1     3   ar
    20     2     4   ar
    21     6     7    2
    22    10    11   ar
    23    12    13   ar
    24    14    15   ar
    25    20    21   ar
    26    22    23   ar
    27     8     9    1
@<TRIPOS>MOLECULE
MolPort-008-385-482 10773408 CSSS00160349912 MCULE-6486063186 PubChem-41656383 ZINC000010773408 ZINC10773408
 25 27 0 0 0
SMALL
GASTEIGER

@<TRIPOS>ATOM
      1 C           8.4286   40.8953    6.4880 C.ar    1  UNL1        0.1127
      2 C          10.6651   41.6421    6.0316 C.ar    1  UNL1        0.1880
      3 N           8.8454   40.6115    5.2325 N.ar    1  UNL1       -0.1440
      4 N          10.0852   41.0271    4.9794 N.ar    1  UNL1       -0.1256
      5 S           9.6256   41.6936    7.3609 S.2     1  UNL1       -0.0347
      6 C          12.9842   42.1037    7.0135 C.2     1  UNL1        0.2509
      7 O          12.7215   41.5499    8.1154 O.2     1  UNL1       -0.2698
      8 N          11.9976   42.1652    5.9737 N.am    1  UNL1       -0.2592
      9 H          12.2627   42.6113    5.1371 H       1  UNL1        0.1571
     10 C          14.3162   42.6937    6.7920 C.ar    1  UNL1        0.0537
     11 C          15.3927   42.3447    7.6209 C.ar    1  UNL1        0.0045
     12 C          16.6568   42.9038    7.4116 C.ar    1  UNL1        0.0001
     13 C          16.8540   43.8164    6.3719 C.ar    1  UNL1        0.0000
     14 C          15.7874   44.1700    5.5413 C.ar    1  UNL1        0.0001
     15 C          14.5232   43.6108    5.7504 C.ar    1  UNL1        0.0045
     16 C           7.0856   40.5383    7.0467 C.3     1  UNL1        0.0593
     17 C           6.8649   41.0588    8.4648 C.3     1  UNL1        0.0363
     18 C           4.5880   41.8865    9.1713 C.ar    1  UNL1        0.1347
     19 C           5.8040   42.1153    8.5023 C.ar    1  UNL1        0.0122
     20 C           6.0381   43.3505    7.8833 C.ar    1  UNL1       -0.0013
     21 C           5.0637   44.3507    7.9123 C.ar    1  UNL1       -0.0001
     22 C           3.8507   44.1241    8.5648 C.ar    1  UNL1        0.0031
     23 C           3.6137   42.8990    9.1926 C.ar    1  UNL1        0.0366
     24 C           4.1272   40.5478   11.2039 C.3     1  UNL1        0.2525
     25 O           4.3675   40.6592    9.8078 O.3     1  UNL1       -0.4717
@<TRIPOS>BOND
     1    24    25    1
     2    18    25    1
     3    19    20   ar
     4    17    19    1
     5    17    16    1
     6    16     1    1
     7     1     5   ar
     8     2     8    1
     9     2     5   ar
    10     6    10    1
    11    11    12   ar
    12    13    14   ar
    13    15    10   ar
    14    21    22   ar
    15    23    18   ar
    16     3     4   ar
    17     8     6   am
    18    18    19   ar
    19     1     3   ar
    20     2     4   ar
    21     6     7    2
    22    10    11   ar
    23    12    13   ar
    24    14    15   ar
    25    20    21   ar
    26    22    23   ar
    27     8     9    1
@<TRIPOS>MOLECULE
MolPort-008-385-482 10773408 CSSS00160349912 MCULE-6486063186 PubChem-41656383 ZINC000010773408 ZINC10773408
 25 27 0 0 0
SMALL
GASTEIGER

@<TRIPOS>ATOM
      1 C          16.2040   33.8327    7.1281 C.ar    1  UNL1        0.1127
      2 C          15.1795   35.8633    7.8995 C.ar    1  UNL1        0.1880
      3 N          16.7350   34.9475    6.5751 N.ar    1  UNL1       -0.1440
      4 N          16.1656   36.0733    7.0022 N.ar    1  UNL1       -0.1256
      5 S          14.9715   34.2165    8.2077 S.2     1  UNL1       -0.0347
      6 C          13.3482   36.8173    9.4133 C.2     1  UNL1        0.2509
      7 O          12.9521   35.6820    9.7930 O.2     1  UNL1       -0.2698
      8 N          14.4364   36.9385    8.4863 N.am    1  UNL1       -0.2592
      9 H          14.6987   37.8515    8.2276 H       1  UNL1        0.1571
     10 C          12.6871   38.0304    9.9260 C.ar    1  UNL1        0.0537
     11 C          11.4551   38.4433    9.3975 C.ar    1  UNL1        0.0045
     12 C          10.8271   39.5940    9.8832 C.ar    1  UNL1        0.0001
     13 C          11.4266   40.3407   10.9010 C.ar    1  UNL1        0.0000
     14 C          12.6538   39.9369   11.4333 C.ar    1  UNL1        0.0001
     15 C          13.2819   38.7861   10.9478 C.ar    1  UNL1        0.0045
     16 C          16.6543   32.4340    6.8382 C.3     1  UNL1        0.0593
     17 C          16.2018   31.9262    5.4714 C.3     1  UNL1        0.0363
     18 C          18.3409   32.2402    4.1697 C.ar    1  UNL1        0.1347
     19 C          16.9851   32.5608    4.3637 C.ar    1  UNL1        0.0122
     20 C          16.3515   33.4648    3.5006 C.ar    1  UNL1       -0.0013
     21 C          17.0631   34.0627    2.4581 C.ar    1  UNL1       -0.0001
     22 C          18.4118   33.7567    2.2688 C.ar    1  UNL1        0.0031
     23 C          19.0479   32.8491    3.1189 C.ar    1  UNL1        0.0366
     24 C          19.6335   31.7034    6.2134 C.3     1  UNL1        0.2525
     25 O          18.9638   31.3193    5.0205 O.3     1  UNL1       -0.4717
@<TRIPOS>BOND
     1    24    25    1
     2    18    25    1
     3    19    20   ar
     4    17    19    1
     5    17    16    1
     6    16     1    1
     7     1     5   ar
     8     2     8    1
     9     2     5   ar
    10     6    10    1
    11    11    12   ar
    12    13    14   ar
    13    15    10   ar
    14    21    22   ar
    15    23    18   ar
    16     3     4   ar
    17     8     6   am
    18    18    19   ar
    19     1     3   ar
    20     2     4   ar
    21     6     7    2
    22    10    11   ar
    23    12    13   ar
    24    14    15   ar
    25    20    21   ar
    26    22    23   ar
    27     8     9    1
@<TRIPOS>MOLECULE
MolPort-008-385-482 10773408 CSSS00160349912 MCULE-6486063186 PubChem-41656383 ZINC000010773408 ZINC10773408
 25 27 0 0 0
SMALL
GASTEIGER

@<TRIPOS>ATOM
      1 C           8.0271   40.9853    6.4805 C.ar    1  UNL1        0.1127
      2 C          10.2689   41.6967    5.9943 C.ar    1  UNL1        0.1880
      3 N           8.4945   40.5223    5.2982 N.ar    1  UNL1       -0.1440
      4 N           9.7372   40.9182    5.0283 N.ar    1  UNL1       -0.1256
      5 S           9.1796   41.9294    7.2630 S.2     1  UNL1       -0.0347
      6 C          12.6399   42.0886    6.8775 C.2     1  UNL1        0.2509
      7 O          12.4410   41.4443    7.9430 O.2     1  UNL1       -0.2698
      8 N          11.5955   42.2301    5.9042 N.am    1  UNL1       -0.2592
      9 H          11.8120   42.7451    5.0935 H       1  UNL1        0.1571
     10 C          13.9566   42.7021    6.6302 C.ar    1  UNL1        0.0537
     11 C          15.0649   42.3407    7.4105 C.ar    1  UNL1        0.0045
     12 C          16.3145   42.9222    7.1766 C.ar    1  UNL1        0.0001
     13 C          16.4653   43.8698    6.1607 C.ar    1  UNL1        0.0000
     14 C          15.3668   44.2360    5.3786 C.ar    1  UNL1        0.0001
     15 C          14.1171   43.6545    5.6122 C.ar    1  UNL1        0.0045
     16 C           6.6690   40.6918    7.0396 C.3     1  UNL1        0.0593
     17 C           6.0634   41.8683    7.8010 C.3     1  UNL1        0.0363
     18 C           6.1623   41.4391   10.2859 C.ar    1  UNL1        0.1347
     19 C           5.4313   41.4242    9.0842 C.ar    1  UNL1        0.0122
     20 C           4.0919   41.0123    9.0873 C.ar    1  UNL1       -0.0013
     21 C           3.4828   40.6002   10.2746 C.ar    1  UNL1       -0.0001
     22 C           4.2076   40.6020   11.4676 C.ar    1  UNL1        0.0031
     23 C           5.5402   41.0205   11.4744 C.ar    1  UNL1        0.0366
     24 C           8.3173   41.8411   11.4394 C.3     1  UNL1        0.2525
     25 O           7.4934   41.8730   10.2820 O.3     1  UNL1       -0.4717
@<TRIPOS>BOND
     1    24    25    1
     2    18    25    1
     3    19    20   ar
     4    17    19    1
     5    17    16    1
     6    16     1    1
     7     1     5   ar
     8     2     8    1
     9     2     5   ar
    10     6    10    1
    11    11    12   ar
    12    13    14   ar
    13    15    10   ar
    14    21    22   ar
    15    23    18   ar
    16     3     4   ar
    17     8     6   am
    18    18    19   ar
    19     1     3   ar
    20     2     4   ar
    21     6     7    2
    22    10    11   ar
    23    12    13   ar
    24    14    15   ar
    25    20    21   ar
    26    22    23   ar
    27     8     9    1
