@<TRIPOS>MOLECULE
MolPort-007-967-229 ChemDiv-L497-0054 MCULE-7610445205 PubChem-46385453 ZINC000033129563 ZINC33129563
 28 30 0 0 0
SMALL
GASTEIGER

@<TRIPOS>ATOM
      1 C          12.2743   40.6975    9.8331 C.ar    1  UNL1        0.0544
      2 C          13.0606   41.1833    8.7843 C.ar    1  UNL1        0.0224
      3 C          12.5996   41.9519    7.5950 C.3     1  UNL1        0.0395
      4 C          14.3085   39.7391   10.3784 C.ar    1  UNL1        0.1526
      5 C          12.9700   39.8684   10.7218 C.ar    1  UNL1        0.0414
      6 S          14.6249   40.6011    8.9714 S.2     1  UNL1       -0.0703
      7 C          10.2408   42.2067   10.1143 C.2     1  UNL1        0.2497
      8 O          10.9285   43.2197   10.4168 O.2     1  UNL1       -0.2698
      9 N          10.8673   40.9249    9.9789 N.am    1  UNL1       -0.2802
     10 H          10.2814   40.1338    9.9868 H       1  UNL1        0.1552
     11 C           6.5264   41.8192   10.7103 C.ar    1  UNL1        0.1419
     12 C           7.9119   41.7036   10.8561 C.ar    1  UNL1        0.0416
     13 C           8.7817   42.3311    9.9536 C.ar    1  UNL1        0.0597
     14 C           8.2480   43.0814    8.8977 C.ar    1  UNL1        0.0416
     15 C           6.8592   43.2064    8.7389 C.ar    1  UNL1        0.1419
     16 C           6.0058   42.5738    9.6472 C.ar    1  UNL1        0.0738
     17 C           4.4586   40.5794   11.2624 C.3     1  UNL1        0.2525
     18 O           5.6936   41.1780   11.6311 O.3     1  UNL1       -0.4713
     19 C           4.9843   44.4732    7.7404 C.3     1  UNL1        0.2525
     20 O           6.3044   43.9490    7.6933 O.3     1  UNL1       -0.4713
     21 O          15.2271   38.8595   12.7169 O.2     1  UNL1       -0.1523
     22 O          16.8618   39.3011   10.9498 O.2     1  UNL1       -0.1523
     23 S          15.4866   38.7667   11.2378 S.O2    1  UNL1        0.0690
     24 C          15.6571   37.0761    9.2805 C.3     1  UNL1        0.0959
     25 C          14.4086   36.6228    8.5557 C.3     1  UNL1        0.0206
     26 C          13.5645   35.9866    9.6211 C.3     1  UNL1        0.0206
     27 C          13.9923   36.6846   10.8876 C.3     1  UNL1        0.0959
     28 N          15.3752   37.1154   10.7140 N.3     1  UNL1       -0.1551
@<TRIPOS>BOND
     1    17    18    1
     2    11    18    1
     3    12    13   ar
     4    13     7    1
     5    14    15   ar
     6    15    20    1
     7    19    20    1
     8    16    11   ar
     9     7     9   am
    10     2     6   ar
    11     3     2    1
    12     4     6   ar
    13     5     1   ar
    14    24    28    1
    15    24    25    1
    16    25    26    1
    17    26    27    1
    18    27    28    1
    19     9     1    1
    20    23     4    1
    21    23    28    1
    22    11    12   ar
    23    13    14   ar
    24    15    16   ar
    25     7     8    2
    26     1     2   ar
    27     4     5   ar
    28    23    21    2
    29    23    22    2
    30     9    10    1
@<TRIPOS>MOLECULE
MolPort-007-967-229 ChemDiv-L497-0054 MCULE-7610445205 PubChem-46385453 ZINC000033129563 ZINC33129563
 28 30 0 0 0
SMALL
GASTEIGER

@<TRIPOS>ATOM
      1 C          12.2836   40.6697    9.8505 C.ar    1  UNL1        0.0544
      2 C          13.0635   41.1739    8.8056 C.ar    1  UNL1        0.0224
      3 C          12.5923   41.9446    7.6217 C.3     1  UNL1        0.0395
      4 C          14.3306   39.7359   10.3900 C.ar    1  UNL1        0.1526
      5 C          12.9903   39.8440   10.7336 C.ar    1  UNL1        0.0414
      6 S          14.6357   40.6122    8.9894 S.2     1  UNL1       -0.0703
      7 C          10.2287   42.1487   10.1375 C.2     1  UNL1        0.2497
      8 O          10.9019   43.1703   10.4439 O.2     1  UNL1       -0.2698
      9 N          10.8735   40.8764    9.9972 N.am    1  UNL1       -0.2802
     10 H          10.2989   40.0770   10.0021 H       1  UNL1        0.1552
     11 C           6.8355   43.0744    8.7479 C.ar    1  UNL1        0.1419
     12 C           8.2207   42.9732    8.9066 C.ar    1  UNL1        0.0416
     13 C           8.7681   42.2529    9.9773 C.ar    1  UNL1        0.0597
     14 C           7.9100   41.6297   10.8928 C.ar    1  UNL1        0.0416
     15 C           6.5174   41.7226   10.7460 C.ar    1  UNL1        0.1419
     16 C           5.9879   42.4452    9.6733 C.ar    1  UNL1        0.0738
     17 C           5.0892   44.4928    7.7201 C.3     1  UNL1        0.2525
     18 O           6.3299   43.8020    7.6673 O.3     1  UNL1       -0.4713
     19 C           4.3532   40.6459   11.2696 C.3     1  UNL1        0.2525
     20 O           5.6424   41.1097   11.6469 O.3     1  UNL1       -0.4713
     21 O          15.2754   38.8722   12.7241 O.2     1  UNL1       -0.1523
     22 O          16.8914   39.3141   10.9400 O.2     1  UNL1       -0.1523
     23 S          15.5218   38.7738   11.2431 S.O2    1  UNL1        0.0690
     24 C          15.6732   37.0761    9.2904 C.3     1  UNL1        0.0959
     25 C          14.4165   36.6103    8.5880 C.3     1  UNL1        0.0206
     26 C          13.5947   35.9724    9.6696 C.3     1  UNL1        0.0206
     27 C          14.0378   36.6790   10.9261 C.3     1  UNL1        0.0959
     28 N          15.4144   37.1194   10.7282 N.3     1  UNL1       -0.1551
@<TRIPOS>BOND
     1    17    18    1
     2    11    18    1
     3    12    13   ar
     4    13     7    1
     5    14    15   ar
     6    15    20    1
     7    19    20    1
     8    16    11   ar
     9     7     9   am
    10     2     6   ar
    11     3     2    1
    12     4     6   ar
    13     5     1   ar
    14    24    28    1
    15    24    25    1
    16    25    26    1
    17    26    27    1
    18    27    28    1
    19     9     1    1
    20    23     4    1
    21    23    28    1
    22    11    12   ar
    23    13    14   ar
    24    15    16   ar
    25     7     8    2
    26     1     2   ar
    27     4     5   ar
    28    23    21    2
    29    23    22    2
    30     9    10    1
@<TRIPOS>MOLECULE
MolPort-007-967-229 ChemDiv-L497-0054 MCULE-7610445205 PubChem-46385453 ZINC000033129563 ZINC33129563
 28 30 0 0 0
SMALL
GASTEIGER

@<TRIPOS>ATOM
      1 C          12.6931   40.7495    9.0263 C.ar    1  UNL1        0.0544
      2 C          13.7532   41.2830    8.2875 C.ar    1  UNL1        0.0224
      3 C          13.6634   42.1001    7.0457 C.3     1  UNL1        0.0395
      4 C          14.4804   39.7770   10.1279 C.ar    1  UNL1        0.1526
      5 C          13.0989   39.8860   10.0513 C.ar    1  UNL1        0.0414
      6 S          15.1958   40.6998    8.9198 S.2     1  UNL1       -0.0703
      7 C          10.5944   42.1923    8.9498 C.2     1  UNL1        0.2497
      8 O          11.0848   43.0938    9.6829 O.2     1  UNL1       -0.2698
      9 N          11.3049   40.9647    8.7448 N.am    1  UNL1       -0.2802
     10 H          10.7961   40.2050    8.3797 H       1  UNL1        0.1552
     11 C           7.5520   41.6903    6.7603 C.ar    1  UNL1        0.1419
     12 C           8.8148   41.5193    7.3352 C.ar    1  UNL1        0.0416
     13 C           9.2633   42.3794    8.3470 C.ar    1  UNL1        0.0597
     14 C           8.4298   43.4183    8.7817 C.ar    1  UNL1        0.0416
     15 C           7.1596   43.6019    8.2139 C.ar    1  UNL1        0.1419
     16 C           6.7279   42.7359    7.2055 C.ar    1  UNL1        0.0738
     17 C           6.5518   39.5491    6.0306 C.3     1  UNL1        0.2525
     18 O           7.1425   40.8116    5.7539 O.3     1  UNL1       -0.4713
     19 C           5.0109   44.8204    8.0909 C.3     1  UNL1        0.2525
     20 O           6.3116   44.6312    8.6312 O.3     1  UNL1       -0.4713
     21 O          14.7227   38.8898   12.6260 O.2     1  UNL1       -0.1523
     22 O          16.7778   39.2577   11.3487 O.2     1  UNL1       -0.1523
     23 S          15.3571   38.7735   11.2666 S.O2    1  UNL1        0.0690
     24 C          15.6634   37.1006    9.3106 C.3     1  UNL1        0.0959
     25 C          14.4604   36.6039    8.5388 C.3     1  UNL1        0.0206
     26 C          13.6028   35.9306    9.5701 C.3     1  UNL1        0.0206
     27 C          13.9571   36.6379   10.8541 C.3     1  UNL1        0.0959
     28 N          15.3280   37.1218   10.7330 N.3     1  UNL1       -0.1551
@<TRIPOS>BOND
     1    17    18    1
     2    11    18    1
     3    12    13   ar
     4    13     7    1
     5    14    15   ar
     6    15    20    1
     7    19    20    1
     8    16    11   ar
     9     7     9   am
    10     2     6   ar
    11     3     2    1
    12     4     6   ar
    13     5     1   ar
    14    24    28    1
    15    24    25    1
    16    25    26    1
    17    26    27    1
    18    27    28    1
    19     9     1    1
    20    23     4    1
    21    23    28    1
    22    11    12   ar
    23    13    14   ar
    24    15    16   ar
    25     7     8    2
    26     1     2   ar
    27     4     5   ar
    28    23    21    2
    29    23    22    2
    30     9    10    1
@<TRIPOS>MOLECULE
MolPort-007-967-229 ChemDiv-L497-0054 MCULE-7610445205 PubChem-46385453 ZINC000033129563 ZINC33129563
 28 30 0 0 0
SMALL
GASTEIGER

@<TRIPOS>ATOM
      1 C          10.7006   41.3201    7.5273 C.ar    1  UNL1        0.0544
      2 C          10.0086   40.9132    6.3828 C.ar    1  UNL1        0.0224
      3 C          10.5844   40.3042    5.1518 C.3     1  UNL1        0.0395
      4 C           8.5852   42.1083    8.0350 C.ar    1  UNL1        0.1526
      5 C           9.9057   42.0102    8.4509 C.ar    1  UNL1        0.0414
      6 S           8.4049   41.3911    6.5264 S.2     1  UNL1       -0.0703
      7 C          13.1401   41.9644    7.1731 C.2     1  UNL1        0.2497
      8 O          12.8876   42.7162    6.1924 O.2     1  UNL1       -0.2698
      9 N          12.1069   41.1498    7.7413 N.am    1  UNL1       -0.2802
     10 H          12.3872   40.4109    8.3283 H       1  UNL1        0.1552
     11 C          16.8181   42.6621    7.7099 C.ar    1  UNL1        0.1419
     12 C          15.5137   42.7336    7.2121 C.ar    1  UNL1        0.0416
     13 C          14.5131   41.8823    7.7008 C.ar    1  UNL1        0.0597
     14 C          14.8323   40.9536    8.7000 C.ar    1  UNL1        0.0416
     15 C          16.1374   40.8706    9.2093 C.ar    1  UNL1        0.1419
     16 C          17.1235   41.7262    8.7106 C.ar    1  UNL1        0.0738
     17 C          17.8013   43.9439    5.8369 C.3     1  UNL1        0.2525
     18 O          17.7867   43.5282    7.1957 O.3     1  UNL1       -0.4713
     19 C          17.7235   39.2663   10.2231 C.3     1  UNL1        0.2525
     20 O          16.4788   39.9520   10.2055 O.3     1  UNL1       -0.4713
     21 O           7.5016   44.4082    8.8241 O.2     1  UNL1       -0.1523
     22 O           7.3636   42.5046   10.3563 O.2     1  UNL1       -0.1523
     23 S           7.3030   42.9194    8.9127 S.O2    1  UNL1        0.0690
     24 C           4.7924   43.4986    8.6307 C.3     1  UNL1        0.0959
     25 C           3.7579   42.8566    9.5291 C.3     1  UNL1        0.0206
     26 C           3.9054   41.3838    9.2811 C.3     1  UNL1        0.0206
     27 C           5.3454   41.2294    8.8605 C.3     1  UNL1        0.0959
     28 N           5.7648   42.4805    8.2383 N.3     1  UNL1       -0.1551
@<TRIPOS>BOND
     1    17    18    1
     2    11    18    1
     3    12    13   ar
     4    13     7    1
     5    14    15   ar
     6    15    20    1
     7    19    20    1
     8    16    11   ar
     9     7     9   am
    10     2     6   ar
    11     3     2    1
    12     4     6   ar
    13     5     1   ar
    14    24    28    1
    15    24    25    1
    16    25    26    1
    17    26    27    1
    18    27    28    1
    19     9     1    1
    20    23     4    1
    21    23    28    1
    22    11    12   ar
    23    13    14   ar
    24    15    16   ar
    25     7     8    2
    26     1     2   ar
    27     4     5   ar
    28    23    21    2
    29    23    22    2
    30     9    10    1
@<TRIPOS>MOLECULE
MolPort-007-967-229 ChemDiv-L497-0054 MCULE-7610445205 PubChem-46385453 ZINC000033129563 ZINC33129563
 28 30 0 0 0
SMALL
GASTEIGER

@<TRIPOS>ATOM
      1 C           9.2903   41.3195   10.2254 C.ar    1  UNL1        0.0544
      2 C           8.7075   41.6128   11.4618 C.ar    1  UNL1        0.0224
      3 C           9.1453   41.1295   12.8006 C.3     1  UNL1        0.0395
      4 C           7.4124   42.4731    9.5210 C.ar    1  UNL1        0.1526
      5 C           8.5532   41.7862    9.1300 C.ar    1  UNL1        0.0414
      6 S           7.2878   42.4702   11.1965 S.2     1  UNL1       -0.0703
      7 C          11.7741   41.0647    9.7174 C.2     1  UNL1        0.2497
      8 O          11.8906   42.2396    9.2738 O.2     1  UNL1       -0.2698
      9 N          10.4795   40.5420   10.0413 N.am    1  UNL1       -0.2802
     10 H          10.4008   39.5663   10.1460 H       1  UNL1        0.1552
     11 C          15.3546   39.8592    9.5486 C.ar    1  UNL1        0.1419
     12 C          14.2197   40.6656    9.4227 C.ar    1  UNL1        0.0416
     13 C          12.9656   40.2089    9.8513 C.ar    1  UNL1        0.0597
     14 C          12.8580   38.9295   10.4119 C.ar    1  UNL1        0.0416
     15 C          13.9888   38.1089   10.5447 C.ar    1  UNL1        0.1419
     16 C          15.2316   38.5792   10.1117 C.ar    1  UNL1        0.0738
     17 C          16.7981   41.7214    8.7961 C.3     1  UNL1        0.2525
     18 O          16.5862   40.3515    9.1088 O.3     1  UNL1       -0.4713
     19 C          13.2830   35.7412   10.4308 C.3     1  UNL1        0.2525
     20 O          13.9052   36.8295   11.1003 O.3     1  UNL1       -0.4713
     21 O           6.7550   43.1248    7.0251 O.2     1  UNL1       -0.1523
     22 O           6.0199   44.6192    8.8186 O.2     1  UNL1       -0.1523
     23 S           6.2328   43.1814    8.4351 S.O2    1  UNL1        0.0690
     24 C           3.8725   43.0242    9.4946 C.3     1  UNL1        0.0959
     25 C           3.6358   42.1364   10.6968 C.3     1  UNL1        0.0206
     26 C           4.0055   40.7598   10.2274 C.3     1  UNL1        0.0206
     27 C           5.0200   41.0080    9.1394 C.3     1  UNL1        0.0959
     28 N           4.7344   42.3127    8.5527 N.3     1  UNL1       -0.1551
@<TRIPOS>BOND
     1    17    18    1
     2    11    18    1
     3    12    13   ar
     4    13     7    1
     5    14    15   ar
     6    15    20    1
     7    19    20    1
     8    16    11   ar
     9     7     9   am
    10     2     6   ar
    11     3     2    1
    12     4     6   ar
    13     5     1   ar
    14    24    28    1
    15    24    25    1
    16    25    26    1
    17    26    27    1
    18    27    28    1
    19     9     1    1
    20    23     4    1
    21    23    28    1
    22    11    12   ar
    23    13    14   ar
    24    15    16   ar
    25     7     8    2
    26     1     2   ar
    27     4     5   ar
    28    23    21    2
    29    23    22    2
    30     9    10    1
@<TRIPOS>MOLECULE
MolPort-007-967-229 ChemDiv-L497-0054 MCULE-7610445205 PubChem-46385453 ZINC000033129563 ZINC33129563
 28 30 0 0 0
SMALL
GASTEIGER

@<TRIPOS>ATOM
      1 C          12.5718   37.9311    9.3974 C.ar    1  UNL1        0.0544
      2 C          12.7396   36.8515   10.2695 C.ar    1  UNL1        0.0224
      3 C          11.7042   35.8700   10.6965 C.3     1  UNL1        0.0395
      4 C          14.7374   38.3238   10.1112 C.ar    1  UNL1        0.1526
      5 C          13.6885   38.7726    9.3209 C.ar    1  UNL1        0.0414
      6 S          14.2820   36.9290   10.9298 S.2     1  UNL1       -0.0703
      7 C          10.5453   39.3975    8.9125 C.2     1  UNL1        0.2497
      8 O          10.6842   40.0833    9.9618 O.2     1  UNL1       -0.2698
      9 N          11.3617   38.2399    8.6951 N.am    1  UNL1       -0.2802
     10 H          11.0661   37.6030    8.0050 H       1  UNL1        0.1552
     11 C           7.5072   41.0159    7.3464 C.ar    1  UNL1        0.1419
     12 C           8.4972   40.6706    8.2710 C.ar    1  UNL1        0.0416
     13 C           9.5040   39.7554    7.9339 C.ar    1  UNL1        0.0597
     14 C           9.5111   39.1865    6.6536 C.ar    1  UNL1        0.0416
     15 C           8.5238   39.5238    5.7150 C.ar    1  UNL1        0.1419
     16 C           7.5267   40.4375    6.0675 C.ar    1  UNL1        0.0738
     17 C           5.4924   41.6153    8.6499 C.3     1  UNL1        0.2525
     18 O           6.5210   41.9319    7.7219 O.3     1  UNL1       -0.4713
     19 C           9.6340   39.0184    3.5635 C.3     1  UNL1        0.2525
     20 O           8.5107   38.9687    4.4327 O.3     1  UNL1       -0.4713
     21 O          16.6157   39.2523   11.7532 O.2     1  UNL1       -0.1523
     22 O          16.1968   40.4986    9.6889 O.2     1  UNL1       -0.1523
     23 S          16.2865   39.1240   10.2907 S.O2    1  UNL1        0.0690
     24 C          17.3957   36.8130    9.9072 C.3     1  UNL1        0.0959
     25 C          18.6457   36.4329   10.6705 C.3     1  UNL1        0.0206
     26 C          19.6525   37.4785   10.2894 C.3     1  UNL1        0.0206
     27 C          18.8123   38.6836    9.9485 C.3     1  UNL1        0.0959
     28 N          17.5162   38.2054    9.4798 N.3     1  UNL1       -0.1551
@<TRIPOS>BOND
     1    17    18    1
     2    11    18    1
     3    12    13   ar
     4    13     7    1
     5    14    15   ar
     6    15    20    1
     7    19    20    1
     8    16    11   ar
     9     7     9   am
    10     2     6   ar
    11     3     2    1
    12     4     6   ar
    13     5     1   ar
    14    24    28    1
    15    24    25    1
    16    25    26    1
    17    26    27    1
    18    27    28    1
    19     9     1    1
    20    23     4    1
    21    23    28    1
    22    11    12   ar
    23    13    14   ar
    24    15    16   ar
    25     7     8    2
    26     1     2   ar
    27     4     5   ar
    28    23    21    2
    29    23    22    2
    30     9    10    1
@<TRIPOS>MOLECULE
MolPort-007-967-229 ChemDiv-L497-0054 MCULE-7610445205 PubChem-46385453 ZINC000033129563 ZINC33129563
 28 30 0 0 0
SMALL
GASTEIGER

@<TRIPOS>ATOM
      1 C          10.8348   40.1230    6.0449 C.ar    1  UNL1        0.0544
      2 C          10.4400   39.3476    4.9507 C.ar    1  UNL1        0.0224
      3 C          11.3236   38.6290    3.9912 C.3     1  UNL1        0.0395
      4 C           8.5581   40.5351    6.0607 C.ar    1  UNL1        0.1526
      5 C           9.7797   40.8081    6.6602 C.ar    1  UNL1        0.0414
      6 S           8.7779   39.4951    4.7596 S.2     1  UNL1       -0.0703
      7 C          12.8243   41.5638    6.7215 C.2     1  UNL1        0.2497
      8 O          12.3144   42.6273    6.2747 O.2     1  UNL1       -0.2698
      9 N          12.1882   40.3027    6.4792 N.am    1  UNL1       -0.2802
     10 H          12.7268   39.4912    6.6234 H       1  UNL1        0.1552
     11 C          15.5725   40.7639    9.1933 C.ar    1  UNL1        0.1419
     12 C          14.3581   40.7244    8.5019 C.ar    1  UNL1        0.0416
     13 C          14.1055   41.6123    7.4471 C.ar    1  UNL1        0.0597
     14 C          15.0869   42.5453    7.0877 C.ar    1  UNL1        0.0416
     15 C          16.3107   42.5965    7.7727 C.ar    1  UNL1        0.1419
     16 C          16.5464   41.7045    8.8226 C.ar    1  UNL1        0.0738
     17 C          14.7284   39.1400   10.8570 C.3     1  UNL1        0.2525
     18 O          15.7851   39.8618   10.2391 O.3     1  UNL1       -0.4713
     19 C          17.4931   43.9870    6.1037 C.3     1  UNL1        0.2525
     20 O          17.3038   43.5186    7.4321 O.3     1  UNL1       -0.4713
     21 O           6.0307   40.1146    6.7830 O.2     1  UNL1       -0.1523
     22 O           6.5075   42.0929    5.4232 O.2     1  UNL1       -0.1523
     23 S           7.0181   41.2230    6.5377 S.O2    1  UNL1        0.0690
     24 C           5.9952   42.0672    8.7647 C.3     1  UNL1        0.0959
     25 C           5.3511   43.4346    8.8361 C.3     1  UNL1        0.0206
     26 C           6.4478   44.3877    8.4605 C.3     1  UNL1        0.0206
     27 C           7.3545   43.5675    7.5776 C.3     1  UNL1        0.0959
     28 N           7.2224   42.1709    7.9777 N.3     1  UNL1       -0.1551
@<TRIPOS>BOND
     1    17    18    1
     2    11    18    1
     3    12    13   ar
     4    13     7    1
     5    14    15   ar
     6    15    20    1
     7    19    20    1
     8    16    11   ar
     9     7     9   am
    10     2     6   ar
    11     3     2    1
    12     4     6   ar
    13     5     1   ar
    14    24    28    1
    15    24    25    1
    16    25    26    1
    17    26    27    1
    18    27    28    1
    19     9     1    1
    20    23     4    1
    21    23    28    1
    22    11    12   ar
    23    13    14   ar
    24    15    16   ar
    25     7     8    2
    26     1     2   ar
    27     4     5   ar
    28    23    21    2
    29    23    22    2
    30     9    10    1
@<TRIPOS>MOLECULE
MolPort-007-967-229 ChemDiv-L497-0054 MCULE-7610445205 PubChem-46385453 ZINC000033129563 ZINC33129563
 28 30 0 0 0
SMALL
GASTEIGER

@<TRIPOS>ATOM
      1 C           9.5218   41.4452   10.0854 C.ar    1  UNL1        0.0544
      2 C           9.0832   41.5022   11.4115 C.ar    1  UNL1        0.0224
      3 C           9.9133   41.3684   12.6406 C.3     1  UNL1        0.0395
      4 C           7.2340   41.5228    9.7491 C.ar    1  UNL1        0.1526
      5 C           8.4818   41.4373    9.1476 C.ar    1  UNL1        0.0414
      6 S           7.4048   41.5645   11.4199 S.2     1  UNL1       -0.0703
      7 C          11.4149   41.6927    8.3980 C.2     1  UNL1        0.2497
      8 O          10.6363   41.8922    7.4261 O.2     1  UNL1       -0.2698
      9 N          10.8890   41.3159    9.6768 N.am    1  UNL1       -0.2802
     10 H          11.5205   40.9362   10.3297 H       1  UNL1        0.1552
     11 C          14.7945   42.9100    7.2154 C.ar    1  UNL1        0.1419
     12 C          13.4128   42.8075    7.4017 C.ar    1  UNL1        0.0416
     13 C          12.8717   41.7937    8.2044 C.ar    1  UNL1        0.0597
     14 C          13.7326   40.8783    8.8239 C.ar    1  UNL1        0.0416
     15 C          15.1218   40.9690    8.6460 C.ar    1  UNL1        0.1419
     16 C          15.6449   41.9854    7.8419 C.ar    1  UNL1        0.0738
     17 C          15.0068   44.0263    5.0185 C.3     1  UNL1        0.2525
     18 O          15.2938   43.9348    6.4072 O.3     1  UNL1       -0.4713
     19 C          15.6784   39.3726   10.4512 C.3     1  UNL1        0.2525
     20 O          15.9993   40.0671    9.2535 O.3     1  UNL1       -0.4713
     21 O           5.8488   40.7832    7.5995 O.2     1  UNL1       -0.1523
     22 O           5.2942   42.9374    8.6202 O.2     1  UNL1       -0.1523
     23 S           5.6983   41.5176    8.9040 S.O2    1  UNL1        0.0690
     24 C           3.1860   41.2686    9.4907 C.3     1  UNL1        0.0959
     25 C           2.5975   42.0333   10.6563 C.3     1  UNL1        0.0206
     26 C           3.3812   41.5659   11.8478 C.3     1  UNL1        0.0206
     27 C           4.7136   41.1607   11.2691 C.3     1  UNL1        0.0959
     28 N           4.4926   40.7478    9.8875 N.3     1  UNL1       -0.1551
@<TRIPOS>BOND
     1    17    18    1
     2    11    18    1
     3    12    13   ar
     4    13     7    1
     5    14    15   ar
     6    15    20    1
     7    19    20    1
     8    16    11   ar
     9     7     9   am
    10     2     6   ar
    11     3     2    1
    12     4     6   ar
    13     5     1   ar
    14    24    28    1
    15    24    25    1
    16    25    26    1
    17    26    27    1
    18    27    28    1
    19     9     1    1
    20    23     4    1
    21    23    28    1
    22    11    12   ar
    23    13    14   ar
    24    15    16   ar
    25     7     8    2
    26     1     2   ar
    27     4     5   ar
    28    23    21    2
    29    23    22    2
    30     9    10    1
@<TRIPOS>MOLECULE
MolPort-007-967-229 ChemDiv-L497-0054 MCULE-7610445205 PubChem-46385453 ZINC000033129563 ZINC33129563
 28 30 0 0 0
SMALL
GASTEIGER

@<TRIPOS>ATOM
      1 C          11.1271   40.7155    8.4256 C.ar    1  UNL1        0.0544
      2 C          10.3207   40.8030    9.5641 C.ar    1  UNL1        0.0224
      3 C          10.7691   40.8452   10.9836 C.3     1  UNL1        0.0395
      4 C           9.0375   40.5011    7.4556 C.ar    1  UNL1        0.1526
      5 C          10.4081   40.5263    7.2389 C.ar    1  UNL1        0.0414
      6 S           8.7135   40.6669    9.0958 S.2     1  UNL1       -0.0703
      7 C          13.3900   41.6226    7.6849 C.2     1  UNL1        0.2497
      8 O          12.9059   42.2865    6.7280 O.2     1  UNL1       -0.2698
      9 N          12.5598   40.7234    8.4307 N.am    1  UNL1       -0.2802
     10 H          13.0122   40.0547    8.9940 H       1  UNL1        0.1552
     11 C          16.9840   42.7995    7.6614 C.ar    1  UNL1        0.1419
     12 C          15.6224   42.6905    7.3638 C.ar    1  UNL1        0.0416
     13 C          14.8246   41.7307    8.0018 C.ar    1  UNL1        0.0597
     14 C          15.4062   40.8763    8.9477 C.ar    1  UNL1        0.0416
     15 C          16.7717   40.9742    9.2566 C.ar    1  UNL1        0.1419
     16 C          17.5532   41.9363    8.6108 C.ar    1  UNL1        0.0738
     17 C          17.6884   43.9648    5.5966 C.3     1  UNL1        0.2525
     18 O          17.7447   43.7693    7.0030 O.3     1  UNL1       -0.4713
     19 C          16.6401   39.1789   10.9526 C.3     1  UNL1        0.2525
     20 O          17.3733   40.1326   10.1960 O.3     1  UNL1       -0.4713
     21 O           7.1515   38.9295    6.4260 O.2     1  UNL1       -0.1523
     22 O           8.4862   40.2678    4.8711 O.2     1  UNL1       -0.1523
     23 S           7.8193   40.2617    6.2182 S.O2    1  UNL1        0.0690
     24 C           7.3461   42.8085    6.1260 C.3     1  UNL1        0.0959
     25 C           7.2223   43.6062    7.4058 C.3     1  UNL1        0.0206
     26 C           6.0792   42.9674    8.1390 C.3     1  UNL1        0.0206
     27 C           6.0834   41.5422    7.6459 C.3     1  UNL1        0.0959
     28 N           6.6451   41.5378    6.2995 N.3     1  UNL1       -0.1551
@<TRIPOS>BOND
     1    17    18    1
     2    11    18    1
     3    12    13   ar
     4    13     7    1
     5    14    15   ar
     6    15    20    1
     7    19    20    1
     8    16    11   ar
     9     7     9   am
    10     2     6   ar
    11     3     2    1
    12     4     6   ar
    13     5     1   ar
    14    24    28    1
    15    24    25    1
    16    25    26    1
    17    26    27    1
    18    27    28    1
    19     9     1    1
    20    23     4    1
    21    23    28    1
    22    11    12   ar
    23    13    14   ar
    24    15    16   ar
    25     7     8    2
    26     1     2   ar
    27     4     5   ar
    28    23    21    2
    29    23    22    2
    30     9    10    1
@<TRIPOS>MOLECULE
MolPort-007-967-229 ChemDiv-L497-0054 MCULE-7610445205 PubChem-46385453 ZINC000033129563 ZINC33129563
 28 30 0 0 0
SMALL
GASTEIGER

@<TRIPOS>ATOM
      1 C           9.1924   41.4204    7.9205 C.ar    1  UNL1        0.0544
      2 C           8.3767   40.4175    7.3886 C.ar    1  UNL1        0.0224
      3 C           8.8146   39.1471    6.7468 C.3     1  UNL1        0.0395
      4 C           7.1259   42.4453    8.1009 C.ar    1  UNL1        0.1526
      5 C           8.4929   42.5712    8.3048 C.ar    1  UNL1        0.0414
      6 S           6.7840   40.9503    7.4148 S.2     1  UNL1       -0.0703
      7 C          11.5307   41.6717    6.9400 C.2     1  UNL1        0.2497
      8 O          11.1171   41.7360    5.7503 O.2     1  UNL1       -0.2698
      9 N          10.6215   41.3598    8.0030 N.am    1  UNL1       -0.2802
     10 H          11.0118   41.0803    8.8625 H       1  UNL1        0.1552
     11 C          14.9936   41.1624    8.3721 C.ar    1  UNL1        0.1419
     12 C          13.6351   40.9869    8.0932 C.ar    1  UNL1        0.0416
     13 C          12.9620   41.8636    7.2311 C.ar    1  UNL1        0.0597
     14 C          13.6667   42.9237    6.6460 C.ar    1  UNL1        0.0416
     15 C          15.0308   43.1121    6.9167 C.ar    1  UNL1        0.1419
     16 C          15.6868   42.2293    7.7791 C.ar    1  UNL1        0.0738
     17 C          15.0505   39.0238    9.6135 C.3     1  UNL1        0.2525
     18 O          15.6276   40.2666    9.2373 O.3     1  UNL1       -0.4713
     19 C          17.1126   44.0329    5.9495 C.3     1  UNL1        0.2525
     20 O          15.7537   44.1625    6.3450 O.3     1  UNL1       -0.4713
     21 O           5.1153   43.9410    7.2024 O.2     1  UNL1       -0.1523
     22 O           6.6410   44.9501    8.8284 O.2     1  UNL1       -0.1523
     23 S           5.9318   43.6830    8.4395 S.O2    1  UNL1        0.0690
     24 C           5.3891   41.8675   10.2080 C.3     1  UNL1        0.0959
     25 C           4.3308   40.8233    9.9264 C.3     1  UNL1        0.0206
     26 C           3.0745   41.6120    9.6983 C.3     1  UNL1        0.0206
     27 C           3.5692   42.9421    9.1877 C.3     1  UNL1        0.0959
     28 N           4.9025   43.1626    9.7370 N.3     1  UNL1       -0.1551
@<TRIPOS>BOND
     1    17    18    1
     2    11    18    1
     3    12    13   ar
     4    13     7    1
     5    14    15   ar
     6    15    20    1
     7    19    20    1
     8    16    11   ar
     9     7     9   am
    10     2     6   ar
    11     3     2    1
    12     4     6   ar
    13     5     1   ar
    14    24    28    1
    15    24    25    1
    16    25    26    1
    17    26    27    1
    18    27    28    1
    19     9     1    1
    20    23     4    1
    21    23    28    1
    22    11    12   ar
    23    13    14   ar
    24    15    16   ar
    25     7     8    2
    26     1     2   ar
    27     4     5   ar
    28    23    21    2
    29    23    22    2
    30     9    10    1
