@<TRIPOS>MOLECULE
MolPort-020-275-241 MCULE-5892033950 PubChem-110252918
 27 29 0 0 0
SMALL
GASTEIGER

@<TRIPOS>ATOM
      1 C          12.8637   42.7297    6.9688 C.ar    1  UNL1        0.1522
      2 C          11.0396   41.9150    8.2531 C.ar    1  UNL1        0.0808
      3 C          10.7124   41.0248    7.2228 C.ar    1  UNL1        0.1137
      4 C          12.5330   41.8328    5.9452 C.ar    1  UNL1        0.1332
      5 N          12.1045   42.7457    8.0968 N.ar    1  UNL1       -0.2317
      6 N          11.4675   41.0031    6.0942 N.ar    1  UNL1       -0.2382
      7 C          10.2286   41.9875    9.5074 C.3     1  UNL1        0.0617
      8 C          10.9545   41.3239   10.6811 C.3     1  UNL1        0.0094
      9 C          10.1135   41.4233   11.9527 C.3     1  UNL1        0.0219
     10 C           8.7489   40.7769   11.7305 C.3     1  UNL1        0.0935
     11 C           8.8516   41.3578    9.2992 C.3     1  UNL1        0.0993
     12 C           6.8237   41.9933   10.6583 C.2     1  UNL1        0.2420
     13 N           8.1144   41.3741   10.5589 N.am    1  UNL1       -0.2780
     14 O           6.1905   41.9662   11.7475 O.2     1  UNL1       -0.2734
     15 C           6.2215   42.7061    9.4897 C.3     1  UNL1        0.1587
     16 C           4.8414   40.8648    9.9127 C.3     1  UNL1        0.0900
     17 C           3.9258   42.8531    9.1241 C.3     1  UNL1        0.0900
     18 N           5.0693   41.9693    8.9968 N.3     1  UNL1       -0.2626
     19 N          13.9768   43.6291    6.8656 N.pl3   1  UNL1       -0.2821
     20 H          13.7902   44.5115    6.4708 H       1  UNL1        0.1551
     21 C          17.2386   40.9374    9.3456 C.3     1  UNL1        0.0521
     22 C          16.9345   42.0965    8.4669 C.ar    1  UNL1        0.0608
     23 C          15.3307   43.3877    7.2726 C.ar    1  UNL1        0.1328
     24 C          16.3363   44.2523    6.8311 C.ar    1  UNL1        0.0344
     25 C          17.6579   44.0244    7.2200 C.ar    1  UNL1        0.0041
     26 C          17.9633   42.9400    8.0437 C.ar    1  UNL1        0.0148
     27 N          15.6536   42.3353    8.0763 N.ar    1  UNL1       -0.2349
@<TRIPOS>BOND
     1    21    22    1
     2    23    27   ar
     3    23    19    1
     4    24    25   ar
     5    26    22   ar
     6     2     5   ar
     7     3     6   ar
     8     4     1   ar
     9     7     2    1
    10     7     8    1
    11     8     9    1
    12     9    10    1
    13    10    13    1
    14    11    13    1
    15    11     7    1
    16    15    12    1
    17    15    18    1
    18    16    18    1
    19    17    18    1
    20    19     1    1
    21    13    12   am
    22    22    27   ar
    23    23    24   ar
    24    25    26   ar
    25     1     5   ar
    26     2     3   ar
    27     4     6   ar
    28    12    14    2
    29    19    20    1
@<TRIPOS>MOLECULE
MolPort-020-275-241 MCULE-5892033950 PubChem-110252918
 27 29 0 0 0
SMALL
GASTEIGER

@<TRIPOS>ATOM
      1 C          16.6323   39.8453   10.2749 C.ar    1  UNL1        0.1522
      2 C          14.4998   38.8934   10.7067 C.ar    1  UNL1        0.0808
      3 C          15.0719   38.0474   11.6649 C.ar    1  UNL1        0.1137
      4 C          17.1960   38.9994   11.2385 C.ar    1  UNL1        0.1332
      5 N          15.2961   39.7671   10.0354 N.ar    1  UNL1       -0.2317
      6 N          16.4057   38.1214   11.9098 N.ar    1  UNL1       -0.2382
      7 C          13.0393   38.8374   10.3904 C.3     1  UNL1        0.0617
      8 C          12.5654   37.3947   10.1931 C.3     1  UNL1        0.0094
      9 C          11.0691   37.3626    9.8857 C.3     1  UNL1        0.0219
     10 C          10.7709   38.2002    8.6452 C.3     1  UNL1        0.0935
     11 C          12.7191   39.6836    9.1586 C.3     1  UNL1        0.0993
     12 C          10.4479   40.6950    8.7314 C.2     1  UNL1        0.2420
     13 N          11.3035   39.5471    8.8300 N.am    1  UNL1       -0.2780
     14 O           9.2364   40.5564    8.4137 O.2     1  UNL1       -0.2734
     15 C          10.9639   42.0659    9.0327 C.3     1  UNL1        0.1587
     16 C           9.9504   43.6136   10.4649 C.3     1  UNL1        0.0900
     17 C           9.8804   41.3420   10.9633 C.3     1  UNL1        0.0900
     18 N          10.7317   42.3893   10.4309 N.3     1  UNL1       -0.2626
     19 N          17.4185   40.7906    9.5354 N.pl3   1  UNL1       -0.2821
     20 H          18.3958   40.7061    9.6190 H       1  UNL1        0.1551
     21 C          14.0062   42.5652    6.4953 C.3     1  UNL1        0.0521
     22 C          15.2982   42.7299    7.2106 C.ar    1  UNL1        0.0608
     23 C          16.9411   41.8447    8.6881 C.ar    1  UNL1        0.1328
     24 C          17.7061   43.0070    8.5548 C.ar    1  UNL1        0.0344
     25 C          17.2488   44.0399    7.7340 C.ar    1  UNL1        0.0041
     26 C          16.0369   43.9043    7.0553 C.ar    1  UNL1        0.0148
     27 N          15.7607   41.7356    8.0154 N.ar    1  UNL1       -0.2349
@<TRIPOS>BOND
     1    21    22    1
     2    23    27   ar
     3    23    19    1
     4    24    25   ar
     5    26    22   ar
     6     2     5   ar
     7     3     6   ar
     8     4     1   ar
     9     7     2    1
    10     7     8    1
    11     8     9    1
    12     9    10    1
    13    10    13    1
    14    11    13    1
    15    11     7    1
    16    15    12    1
    17    15    18    1
    18    16    18    1
    19    17    18    1
    20    19     1    1
    21    13    12   am
    22    22    27   ar
    23    23    24   ar
    24    25    26   ar
    25     1     5   ar
    26     2     3   ar
    27     4     6   ar
    28    12    14    2
    29    19    20    1
@<TRIPOS>MOLECULE
MolPort-020-275-241 MCULE-5892033950 PubChem-110252918
 27 29 0 0 0
SMALL
GASTEIGER

@<TRIPOS>ATOM
      1 C          12.3237   41.2561    7.2410 C.ar    1  UNL1        0.1522
      2 C          10.1278   41.8831    7.8930 C.ar    1  UNL1        0.0808
      3 C           9.6995   41.7625    6.5652 C.ar    1  UNL1        0.1137
      4 C          11.8864   41.1327    5.9161 C.ar    1  UNL1        0.1332
      5 N          11.4291   41.6298    8.1944 N.ar    1  UNL1       -0.2317
      6 N          10.5880   41.3884    5.6084 N.ar    1  UNL1       -0.2382
      7 C           9.1910   42.3079    8.9785 C.3     1  UNL1        0.0617
      8 C           9.9525   42.7721   10.2234 C.3     1  UNL1        0.0094
      9 C           8.9754   43.2142   11.3116 C.3     1  UNL1        0.0219
     10 C           8.0250   42.0714   11.6584 C.3     1  UNL1        0.0935
     11 C           8.2208   41.1802    9.3289 C.3     1  UNL1        0.0993
     12 C           5.9418   41.5824   10.3329 C.2     1  UNL1        0.2420
     13 N           7.3727   41.5970   10.4413 N.am    1  UNL1       -0.2780
     14 O           5.2288   41.9146   11.3173 O.2     1  UNL1       -0.2734
     15 C           5.2724   41.2065    9.0495 C.3     1  UNL1        0.1587
     16 C           3.4365   40.5780   10.3565 C.3     1  UNL1        0.0900
     17 C           3.5672   42.7319    9.4864 C.3     1  UNL1        0.0900
     18 N           3.8308   41.3379    9.1828 N.3     1  UNL1       -0.2626
     19 N          13.6827   40.9998    7.6231 N.pl3   1  UNL1       -0.2821
     20 H          13.8859   40.0858    7.9273 H       1  UNL1        0.1551
     21 C          15.7027   45.1541    5.9809 C.3     1  UNL1        0.0521
     22 C          15.7806   43.9381    6.8314 C.ar    1  UNL1        0.0608
     23 C          14.7785   41.9251    7.6120 C.ar    1  UNL1        0.1328
     24 C          15.8986   41.6596    8.4049 C.ar    1  UNL1        0.0344
     25 C          16.9697   42.5555    8.4028 C.ar    1  UNL1        0.0041
     26 C          16.9142   43.7039    7.6118 C.ar    1  UNL1        0.0148
     27 N          14.7474   43.0534    6.8481 N.ar    1  UNL1       -0.2349
@<TRIPOS>BOND
     1    21    22    1
     2    23    27   ar
     3    23    19    1
     4    24    25   ar
     5    26    22   ar
     6     2     5   ar
     7     3     6   ar
     8     4     1   ar
     9     7     2    1
    10     7     8    1
    11     8     9    1
    12     9    10    1
    13    10    13    1
    14    11    13    1
    15    11     7    1
    16    15    12    1
    17    15    18    1
    18    16    18    1
    19    17    18    1
    20    19     1    1
    21    13    12   am
    22    22    27   ar
    23    23    24   ar
    24    25    26   ar
    25     1     5   ar
    26     2     3   ar
    27     4     6   ar
    28    12    14    2
    29    19    20    1
@<TRIPOS>MOLECULE
MolPort-020-275-241 MCULE-5892033950 PubChem-110252918
 27 29 0 0 0
SMALL
GASTEIGER

@<TRIPOS>ATOM
      1 C          14.1227   40.4771    9.3705 C.ar    1  UNL1        0.1522
      2 C          11.7726   40.8030    9.2666 C.ar    1  UNL1        0.0808
      3 C          11.6325   40.1890   10.5174 C.ar    1  UNL1        0.1137
      4 C          13.9748   39.8688   10.6234 C.ar    1  UNL1        0.1332
      5 N          13.0135   40.9275    8.7256 N.ar    1  UNL1       -0.2317
      6 N          12.7366   39.7381   11.1672 N.ar    1  UNL1       -0.2382
      7 C          10.5854   41.3004    8.5053 C.3     1  UNL1        0.0617
      8 C           9.8247   42.3705    9.2935 C.3     1  UNL1        0.0094
      9 C           8.6261   42.8727    8.4901 C.3     1  UNL1        0.0219
     10 C           7.7048   41.7076    8.1396 C.3     1  UNL1        0.0935
     11 C           9.6581   40.1442    8.1321 C.3     1  UNL1        0.0993
     12 C           8.0954   40.2121    6.1529 C.2     1  UNL1        0.2420
     13 N           8.4736   40.6690    7.4597 N.am    1  UNL1       -0.2780
     14 O           7.0503   40.6545    5.6053 O.2     1  UNL1       -0.2734
     15 C           8.9440   39.2332    5.4060 C.3     1  UNL1        0.1587
     16 C          10.7147   40.2720    4.2838 C.3     1  UNL1        0.0900
     17 C           9.3997   38.6980    3.1853 C.3     1  UNL1        0.0900
     18 N           9.3500   39.7983    4.1296 N.3     1  UNL1       -0.2626
     19 N          15.4051   40.6409    8.7482 N.pl3   1  UNL1       -0.2821
     20 H          15.9525   39.8279    8.6553 H       1  UNL1        0.1551
     21 C          15.1591   44.5298    5.7729 C.3     1  UNL1        0.0521
     22 C          15.8832   43.7532    6.8125 C.ar    1  UNL1        0.0608
     23 C          15.9793   41.8555    8.2462 C.ar    1  UNL1        0.1328
     24 C          17.2120   42.2816    8.7491 C.ar    1  UNL1        0.0344
     25 C          17.7783   43.4640    8.2685 C.ar    1  UNL1        0.0041
     26 C          17.1124   44.2079    7.2933 C.ar    1  UNL1        0.0148
     27 N          15.3480   42.5991    7.2943 N.ar    1  UNL1       -0.2349
@<TRIPOS>BOND
     1    21    22    1
     2    23    27   ar
     3    23    19    1
     4    24    25   ar
     5    26    22   ar
     6     2     5   ar
     7     3     6   ar
     8     4     1   ar
     9     7     2    1
    10     7     8    1
    11     8     9    1
    12     9    10    1
    13    10    13    1
    14    11    13    1
    15    11     7    1
    16    15    12    1
    17    15    18    1
    18    16    18    1
    19    17    18    1
    20    19     1    1
    21    13    12   am
    22    22    27   ar
    23    23    24   ar
    24    25    26   ar
    25     1     5   ar
    26     2     3   ar
    27     4     6   ar
    28    12    14    2
    29    19    20    1
@<TRIPOS>MOLECULE
MolPort-020-275-241 MCULE-5892033950 PubChem-110252918
 27 29 0 0 0
SMALL
GASTEIGER

@<TRIPOS>ATOM
      1 C          14.3328   40.3031    9.3436 C.ar    1  UNL1        0.1522
      2 C          12.0337   40.1074    8.7811 C.ar    1  UNL1        0.0808
      3 C          11.7481   39.7028   10.0910 C.ar    1  UNL1        0.1137
      4 C          14.0382   39.9026   10.6530 C.ar    1  UNL1        0.1332
      5 N          13.3188   40.3934    8.4421 N.ar    1  UNL1       -0.2317
      6 N          12.7563   39.6117   10.9965 N.ar    1  UNL1       -0.2382
      7 C          10.9604   40.2067    7.7446 C.3     1  UNL1        0.0617
      8 C          11.4469   39.6943    6.3860 C.3     1  UNL1        0.0094
      9 C          10.3297   39.7923    5.3483 C.3     1  UNL1        0.0219
     10 C           9.8440   41.2348    5.2357 C.3     1  UNL1        0.0935
     11 C          10.4506   41.6428    7.6284 C.3     1  UNL1        0.0993
     12 C           8.1395   42.2243    6.8013 C.2     1  UNL1        0.2420
     13 N           9.4616   41.7223    6.5579 N.am    1  UNL1       -0.2780
     14 O           7.3124   42.3153    5.8549 O.2     1  UNL1       -0.2734
     15 C           7.7083   42.6169    8.1784 C.3     1  UNL1        0.1587
     16 C           7.5162   41.7022   10.3232 C.3     1  UNL1        0.0900
     17 C           5.8268   41.3721    8.7579 C.3     1  UNL1        0.0900
     18 N           7.2672   41.4440    8.9154 N.3     1  UNL1       -0.2626
     19 N          15.6676   40.6216    8.9249 N.pl3   1  UNL1       -0.2821
     20 H          16.3468   39.9220    9.0611 H       1  UNL1        0.1551
     21 C          14.9996   44.2945    5.7470 C.3     1  UNL1        0.0521
     22 C          15.8226   43.6395    6.7966 C.ar    1  UNL1        0.0608
     23 C          16.1241   41.8443    8.3303 C.ar    1  UNL1        0.1328
     24 C          17.3378   42.3930    8.7541 C.ar    1  UNL1        0.0344
     25 C          17.7898   43.5844    8.1830 C.ar    1  UNL1        0.0041
     26 C          17.0298   44.2151    7.1969 C.ar    1  UNL1        0.0148
     27 N          15.3994   42.4788    7.3659 N.ar    1  UNL1       -0.2349
@<TRIPOS>BOND
     1    21    22    1
     2    23    27   ar
     3    23    19    1
     4    24    25   ar
     5    26    22   ar
     6     2     5   ar
     7     3     6   ar
     8     4     1   ar
     9     7     2    1
    10     7     8    1
    11     8     9    1
    12     9    10    1
    13    10    13    1
    14    11    13    1
    15    11     7    1
    16    15    12    1
    17    15    18    1
    18    16    18    1
    19    17    18    1
    20    19     1    1
    21    13    12   am
    22    22    27   ar
    23    23    24   ar
    24    25    26   ar
    25     1     5   ar
    26     2     3   ar
    27     4     6   ar
    28    12    14    2
    29    19    20    1
@<TRIPOS>MOLECULE
MolPort-020-275-241 MCULE-5892033950 PubChem-110252918
 27 29 0 0 0
SMALL
GASTEIGER

@<TRIPOS>ATOM
      1 C           8.6160   42.0887   10.9815 C.ar    1  UNL1        0.1522
      2 C          10.7192   41.8314    9.9090 C.ar    1  UNL1        0.0808
      3 C          10.9220   43.2154    9.9753 C.ar    1  UNL1        0.1137
      4 C           8.8286   43.4715   11.0487 C.ar    1  UNL1        0.1332
      5 N           9.5703   41.3059   10.4109 N.ar    1  UNL1       -0.2317
      6 N           9.9732   44.0027   10.5451 N.ar    1  UNL1       -0.2382
      7 C          11.7270   40.9255    9.2764 C.3     1  UNL1        0.0617
      8 C          11.2900   40.4977    7.8724 C.3     1  UNL1        0.0094
      9 C          12.3411   39.5857    7.2419 C.3     1  UNL1        0.0219
     10 C          12.5744   38.3645    8.1272 C.3     1  UNL1        0.0935
     11 C          11.9849   39.7032   10.1569 C.3     1  UNL1        0.0993
     12 C          14.1382   38.3904   10.0993 C.2     1  UNL1        0.2420
     13 N          12.9118   38.8026    9.4786 N.am    1  UNL1       -0.2780
     14 O          14.9076   37.5858    9.5090 O.2     1  UNL1       -0.2734
     15 C          14.5414   38.9278   11.4354 C.3     1  UNL1        0.1587
     16 C          16.5284   37.6937   11.4892 C.3     1  UNL1        0.0900
     17 C          16.4189   39.6775   10.2785 C.3     1  UNL1        0.0900
     18 N          15.9887   39.0424   11.5099 N.3     1  UNL1       -0.2626
     19 N           7.4263   41.4736   11.4960 N.pl3   1  UNL1       -0.2821
     20 H           7.5183   40.9901   12.3487 H       1  UNL1        0.1551
     21 C           2.5851   42.1035   11.9449 C.3     1  UNL1        0.0521
     22 C           3.7648   41.7855   11.0992 C.ar    1  UNL1        0.0608
     23 C           6.1181   41.4835   10.9082 C.ar    1  UNL1        0.1328
     24 C           5.9835   41.1925    9.5476 C.ar    1  UNL1        0.0344
     25 C           4.7143   41.2020    8.9654 C.ar    1  UNL1        0.0041
     26 C           3.5946   41.4999    9.7432 C.ar    1  UNL1        0.0148
     27 N           5.0098   41.7718   11.6472 N.ar    1  UNL1       -0.2349
@<TRIPOS>BOND
     1    21    22    1
     2    23    27   ar
     3    23    19    1
     4    24    25   ar
     5    26    22   ar
     6     2     5   ar
     7     3     6   ar
     8     4     1   ar
     9     7     2    1
    10     7     8    1
    11     8     9    1
    12     9    10    1
    13    10    13    1
    14    11    13    1
    15    11     7    1
    16    15    12    1
    17    15    18    1
    18    16    18    1
    19    17    18    1
    20    19     1    1
    21    13    12   am
    22    22    27   ar
    23    23    24   ar
    24    25    26   ar
    25     1     5   ar
    26     2     3   ar
    27     4     6   ar
    28    12    14    2
    29    19    20    1
@<TRIPOS>MOLECULE
MolPort-020-275-241 MCULE-5892033950 PubChem-110252918
 27 29 0 0 0
SMALL
GASTEIGER

@<TRIPOS>ATOM
      1 C          11.4412   41.4372    7.0485 C.ar    1  UNL1        0.1522
      2 C           9.2956   41.8749    7.9679 C.ar    1  UNL1        0.0808
      3 C           8.7428   41.8655    6.6813 C.ar    1  UNL1        0.1137
      4 C          10.8797   41.4242    5.7654 C.ar    1  UNL1        0.1332
      5 N          10.6304   41.6638    8.1164 N.ar    1  UNL1       -0.2317
      6 N           9.5471   41.6386    5.6107 N.ar    1  UNL1       -0.2382
      7 C           8.4539   42.1368    9.1759 C.3     1  UNL1        0.0617
      8 C           9.1619   41.6888   10.4578 C.3     1  UNL1        0.0094
      9 C           8.2894   41.9795   11.6778 C.3     1  UNL1        0.0219
     10 C           6.9407   41.2793   11.5365 C.3     1  UNL1        0.0935
     11 C           7.0922   41.4551    9.0454 C.3     1  UNL1        0.0993
     12 C           5.0229   42.2660   10.2387 C.2     1  UNL1        0.2420
     13 N           6.3251   41.6638   10.2695 N.am    1  UNL1       -0.2780
     14 O           4.3645   42.4059   11.3040 O.2     1  UNL1       -0.2734
     15 C           4.4377   42.7656    8.9564 C.3     1  UNL1        0.1587
     16 C           5.7547   44.4410    7.9908 C.3     1  UNL1        0.0900
     17 C           3.4503   44.7170    8.1550 C.3     1  UNL1        0.0900
     18 N           4.6124   44.2054    8.8569 N.3     1  UNL1       -0.2626
     19 N          12.8415   41.2179    7.2712 N.pl3   1  UNL1       -0.2821
     20 H          13.0984   40.3216    7.5872 H       1  UNL1        0.1551
     21 C          17.4463   42.6322    8.1829 C.3     1  UNL1        0.0521
     22 C          16.1417   42.8650    7.5107 C.ar    1  UNL1        0.0608
     23 C          13.9092   42.1573    7.0853 C.ar    1  UNL1        0.1328
     24 C          13.6961   43.2745    6.2727 C.ar    1  UNL1        0.0344
     25 C          14.7301   44.1937    6.0835 C.ar    1  UNL1        0.0041
     26 C          15.9630   43.9912    6.7052 C.ar    1  UNL1        0.0148
     27 N          15.1220   41.9810    7.6816 N.ar    1  UNL1       -0.2349
@<TRIPOS>BOND
     1    21    22    1
     2    23    27   ar
     3    23    19    1
     4    24    25   ar
     5    26    22   ar
     6     2     5   ar
     7     3     6   ar
     8     4     1   ar
     9     7     2    1
    10     7     8    1
    11     8     9    1
    12     9    10    1
    13    10    13    1
    14    11    13    1
    15    11     7    1
    16    15    12    1
    17    15    18    1
    18    16    18    1
    19    17    18    1
    20    19     1    1
    21    13    12   am
    22    22    27   ar
    23    23    24   ar
    24    25    26   ar
    25     1     5   ar
    26     2     3   ar
    27     4     6   ar
    28    12    14    2
    29    19    20    1
@<TRIPOS>MOLECULE
MolPort-020-275-241 MCULE-5892033950 PubChem-110252918
 27 29 0 0 0
SMALL
GASTEIGER

@<TRIPOS>ATOM
      1 C          14.7077   41.2452    8.2028 C.ar    1  UNL1        0.1522
      2 C          12.5971   41.9061    7.3375 C.ar    1  UNL1        0.0808
      3 C          13.2059   42.9772    6.6718 C.ar    1  UNL1        0.1137
      4 C          15.3098   42.3158    7.5297 C.ar    1  UNL1        0.1332
      5 N          13.3641   41.0711    8.0876 N.ar    1  UNL1       -0.2317
      6 N          14.5477   43.1559    6.7818 N.ar    1  UNL1       -0.2382
      7 C          11.1212   41.6780    7.2602 C.3     1  UNL1        0.0617
      8 C          10.3816   42.4249    8.3739 C.3     1  UNL1        0.0094
      9 C           8.8761   42.1883    8.2654 C.3     1  UNL1        0.0219
     10 C           8.5744   40.6936    8.3290 C.3     1  UNL1        0.0935
     11 C          10.8007   40.1844    7.3073 C.3     1  UNL1        0.0993
     12 C           8.7055   39.1905    6.3142 C.2     1  UNL1        0.2420
     13 N           9.3530   39.9979    7.3083 N.am    1  UNL1       -0.2780
     14 O           7.4581   39.0162    6.3541 O.2     1  UNL1       -0.2734
     15 C           9.4869   38.5702    5.2001 C.3     1  UNL1        0.1587
     16 C          10.5663   40.1520    3.8560 C.3     1  UNL1        0.0900
     17 C           9.3340   38.4368    2.8798 C.3     1  UNL1        0.0900
     18 N           9.3509   39.3678    3.9923 N.3     1  UNL1       -0.2626
     19 N          15.4627   40.3278    9.0070 N.pl3   1  UNL1       -0.2821
     20 H          16.4327   40.4879    9.0583 H       1  UNL1        0.1551
     21 C          14.3506   35.5578    9.2216 C.3     1  UNL1        0.0521
     22 C          14.4170   36.8906    9.8753 C.ar    1  UNL1        0.0608
     23 C          14.9635   39.2036    9.7447 C.ar    1  UNL1        0.1328
     24 C          14.5496   39.3894   11.0668 C.ar    1  UNL1        0.0344
     25 C          14.0642   38.3007   11.7941 C.ar    1  UNL1        0.0041
     26 C          13.9958   37.0408   11.1978 C.ar    1  UNL1        0.0148
     27 N          14.8874   37.9636    9.1840 N.ar    1  UNL1       -0.2349
@<TRIPOS>BOND
     1    21    22    1
     2    23    27   ar
     3    23    19    1
     4    24    25   ar
     5    26    22   ar
     6     2     5   ar
     7     3     6   ar
     8     4     1   ar
     9     7     2    1
    10     7     8    1
    11     8     9    1
    12     9    10    1
    13    10    13    1
    14    11    13    1
    15    11     7    1
    16    15    12    1
    17    15    18    1
    18    16    18    1
    19    17    18    1
    20    19     1    1
    21    13    12   am
    22    22    27   ar
    23    23    24   ar
    24    25    26   ar
    25     1     5   ar
    26     2     3   ar
    27     4     6   ar
    28    12    14    2
    29    19    20    1
@<TRIPOS>MOLECULE
MolPort-020-275-241 MCULE-5892033950 PubChem-110252918
 27 29 0 0 0
SMALL
GASTEIGER

@<TRIPOS>ATOM
      1 C          14.0210   40.5646    9.5679 C.ar    1  UNL1        0.1522
      2 C          11.7492   40.9060   10.1700 C.ar    1  UNL1        0.0808
      3 C          11.9061   40.0344   11.2547 C.ar    1  UNL1        0.1137
      4 C          14.1712   39.6981   10.6581 C.ar    1  UNL1        0.1332
      5 N          12.8100   41.1449    9.3540 N.ar    1  UNL1       -0.2317
      6 N          13.1135   39.4525   11.4746 N.ar    1  UNL1       -0.2382
      7 C          10.4353   41.5575    9.8775 C.3     1  UNL1        0.0617
      8 C           9.6666   41.8674   11.1651 C.3     1  UNL1        0.0094
      9 C           8.3359   42.5448   10.8414 C.3     1  UNL1        0.0219
     10 C           7.5051   41.6551    9.9209 C.3     1  UNL1        0.0935
     11 C           9.5949   40.6869    8.9438 C.3     1  UNL1        0.0993
     12 C           7.8107   41.6177    7.4227 C.2     1  UNL1        0.2420
     13 N           8.2914   41.3112    8.7396 N.am    1  UNL1       -0.2780
     14 O           6.6681   42.1260    7.2681 O.2     1  UNL1       -0.2734
     15 C           8.6617   41.3722    6.2177 C.3     1  UNL1        0.1587
     16 C           9.1419   39.5838    4.7877 C.3     1  UNL1        0.0900
     17 C           7.3586   39.4425    6.2753 C.3     1  UNL1        0.0900
     18 N           8.0581   40.3470    5.3823 N.3     1  UNL1       -0.2626
     19 N          15.1027   40.8596    8.6727 N.pl3   1  UNL1       -0.2821
     20 H          15.8926   40.2752    8.7345 H       1  UNL1        0.1551
     21 C          17.6280   44.4038    6.4151 C.3     1  UNL1        0.0521
     22 C          16.3677   43.6352    6.5853 C.ar    1  UNL1        0.0608
     23 C          15.1630   41.9099    7.6979 C.ar    1  UNL1        0.1328
     24 C          14.0298   42.1867    6.9279 C.ar    1  UNL1        0.0344
     25 C          14.0792   43.2058    5.9745 C.ar    1  UNL1        0.0041
     26 C          15.2545   43.9376    5.7990 C.ar    1  UNL1        0.0148
     27 N          16.2994   42.6381    7.5081 N.ar    1  UNL1       -0.2349
@<TRIPOS>BOND
     1    21    22    1
     2    23    27   ar
     3    23    19    1
     4    24    25   ar
     5    26    22   ar
     6     2     5   ar
     7     3     6   ar
     8     4     1   ar
     9     7     2    1
    10     7     8    1
    11     8     9    1
    12     9    10    1
    13    10    13    1
    14    11    13    1
    15    11     7    1
    16    15    12    1
    17    15    18    1
    18    16    18    1
    19    17    18    1
    20    19     1    1
    21    13    12   am
    22    22    27   ar
    23    23    24   ar
    24    25    26   ar
    25     1     5   ar
    26     2     3   ar
    27     4     6   ar
    28    12    14    2
    29    19    20    1
@<TRIPOS>MOLECULE
MolPort-020-275-241 MCULE-5892033950 PubChem-110252918
 27 29 0 0 0
SMALL
GASTEIGER

@<TRIPOS>ATOM
      1 C           9.9885   41.8037   10.3396 C.ar    1  UNL1        0.1522
      2 C          11.9672   40.5873    9.8438 C.ar    1  UNL1        0.0808
      3 C          12.4246   41.6524    9.0581 C.ar    1  UNL1        0.1137
      4 C          10.4554   42.8667    9.5562 C.ar    1  UNL1        0.1332
      5 N          10.7600   40.6905   10.4605 N.ar    1  UNL1       -0.2317
      6 N          11.6593   42.7676    8.9342 N.ar    1  UNL1       -0.2382
      7 C          12.7662   39.3325    9.9970 C.3     1  UNL1        0.0617
      8 C          11.8611   38.0995   10.0699 C.3     1  UNL1        0.0094
      9 C          12.6999   36.8304   10.2116 C.3     1  UNL1        0.0219
     10 C          13.5837   36.9221   11.4525 C.3     1  UNL1        0.0935
     11 C          13.6694   39.4123   11.2273 C.3     1  UNL1        0.0993
     12 C          15.8098   38.0970   11.4557 C.2     1  UNL1        0.2420
     13 N          14.3769   38.1465   11.3935 N.am    1  UNL1       -0.2780
     14 O          16.3983   36.9969   11.6332 O.2     1  UNL1       -0.2734
     15 C          16.6296   39.3354   11.2805 C.3     1  UNL1        0.1587
     16 C          17.0208   40.7607    9.4669 C.3     1  UNL1        0.0900
     17 C          18.5896   39.1400   10.0373 C.3     1  UNL1        0.0900
     18 N          17.1648   39.3913    9.9300 N.3     1  UNL1       -0.2626
     19 N           8.7253   41.8529   11.0180 N.pl3   1  UNL1       -0.2821
     20 H           8.7514   42.0910   11.9730 H       1  UNL1        0.1551
     21 C           3.9440   40.9716   11.6495 C.3     1  UNL1        0.0521
     22 C           5.1039   41.1669   10.7414 C.ar    1  UNL1        0.0608
     23 C           7.4288   41.5943   10.4620 C.ar    1  UNL1        0.1328
     24 C           7.2866   41.5318    9.0728 C.ar    1  UNL1        0.0344
     25 C           6.0280   41.2828    8.5216 C.ar    1  UNL1        0.0041
     26 C           4.9264   41.0984    9.3583 C.ar    1  UNL1        0.0148
     27 N           6.3381   41.4112   11.2586 N.ar    1  UNL1       -0.2349
@<TRIPOS>BOND
     1    21    22    1
     2    23    27   ar
     3    23    19    1
     4    24    25   ar
     5    26    22   ar
     6     2     5   ar
     7     3     6   ar
     8     4     1   ar
     9     7     2    1
    10     7     8    1
    11     8     9    1
    12     9    10    1
    13    10    13    1
    14    11    13    1
    15    11     7    1
    16    15    12    1
    17    15    18    1
    18    16    18    1
    19    17    18    1
    20    19     1    1
    21    13    12   am
    22    22    27   ar
    23    23    24   ar
    24    25    26   ar
    25     1     5   ar
    26     2     3   ar
    27     4     6   ar
    28    12    14    2
    29    19    20    1
