@<TRIPOS>MOLECULE
MolPort-000-115-472 4931121 MCULE-4916726914 PubChem-3231576 ZINC000004931121 ZINC04931121
 26 27 0 0 0
SMALL
GASTEIGER

@<TRIPOS>ATOM
      1 C          14.0611   41.4759    7.6397 C.ar    1  UNL1        0.0658
      2 C          12.7536   41.0965    7.3261 C.ar    1  UNL1        0.1146
      3 C          12.6425   39.6937    9.2416 C.ar    1  UNL1        0.1342
      4 C          13.9527   40.0301    9.5835 C.ar    1  UNL1        0.0315
      5 C          14.6738   40.9153    8.7800 C.ar    1  UNL1       -0.0041
      6 C          16.1015   41.1720    9.1225 C.3     1  UNL1        0.0325
      7 N          12.0755   40.2332    8.1276 N.ar    1  UNL1       -0.2277
      8 C          14.1394   43.4891    6.0902 C.2     1  UNL1        0.2261
      9 O          12.8859   43.5962    6.0261 O.2     1  UNL1       -0.2748
     10 N          14.7434   42.3741    6.7555 N.am    1  UNL1       -0.2829
     11 H          15.7008   42.2121    6.5930 H       1  UNL1        0.1549
     12 C          14.9950   44.5022    5.4068 C.3     1  UNL1        0.0854
     13 C          16.1605   44.9200    6.2896 C.3     1  UNL1        0.0096
     14 C          18.0826   43.7241    7.2889 C.3     1  UNL1        0.0000
     15 C          17.3849   44.0752    5.9921 C.3     1  UNL1        0.0005
     16 C          11.8167   37.3876    9.9418 C.2     1  UNL1        0.2527
     17 O          10.7579   36.8079   10.3014 O.2     1  UNL1       -0.2697
     18 N          11.9010   38.8115   10.0907 N.am    1  UNL1       -0.2658
     19 H          11.4073   39.2163   10.8401 H       1  UNL1        0.1566
     20 C          12.9562   36.5820    9.4452 C.ar    1  UNL1        0.0811
     21 C          13.1487   35.2501    9.8644 C.ar    1  UNL1        0.1445
     22 C          14.2479   34.5204    9.4004 C.ar    1  UNL1        0.0298
     23 C          15.1662   35.1087    8.5282 C.ar    1  UNL1        0.0023
     24 C          14.9893   36.4309    8.1170 C.ar    1  UNL1        0.0003
     25 C          13.8923   37.1636    8.5763 C.ar    1  UNL1        0.0068
     26 F          12.2686   34.6466   10.7019 F       1  UNL1       -0.2040
@<TRIPOS>BOND
     1    14    15    1
     2    15    13    1
     3    13    12    1
     4    12     8    1
     5     8    10   am
     6     2     7   ar
     7     3    18    1
     8     3     4   ar
     9    16    20    1
    10    21    26    1
    11    21    22   ar
    12    23    24   ar
    13    25    20   ar
    14     5     1   ar
    15     6     5    1
    16    10     1    1
    17    18    16   am
    18     8     9    2
    19     1     2   ar
    20     3     7   ar
    21    16    17    2
    22    20    21   ar
    23    22    23   ar
    24    24    25   ar
    25     4     5   ar
    26    10    11    1
    27    18    19    1
@<TRIPOS>MOLECULE
MolPort-000-115-472 4931121 MCULE-4916726914 PubChem-3231576 ZINC000004931121 ZINC04931121
 26 27 0 0 0
SMALL
GASTEIGER

@<TRIPOS>ATOM
      1 C          12.8605   41.3214    8.6158 C.ar    1  UNL1        0.0658
      2 C          11.5919   41.7415    8.2084 C.ar    1  UNL1        0.1146
      3 C          10.5958   40.8001   10.1504 C.ar    1  UNL1        0.1342
      4 C          11.8404   40.3454   10.5875 C.ar    1  UNL1        0.0315
      5 C          12.9790   40.5943    9.8188 C.ar    1  UNL1       -0.0041
      6 C          14.2730   40.0070   10.2685 C.3     1  UNL1        0.0325
      7 N          10.5011   41.4857    8.9780 N.ar    1  UNL1       -0.2277
      8 C          14.1871   42.8223    7.0515 C.2     1  UNL1        0.2261
      9 O          13.2489   43.6516    6.9130 O.2     1  UNL1       -0.2748
     10 N          13.9789   41.5973    7.7632 N.am    1  UNL1       -0.2829
     11 H          14.6561   40.8904    7.6588 H       1  UNL1        0.1549
     12 C          15.5049   43.0961    6.4082 C.3     1  UNL1        0.0854
     13 C          16.2188   44.2514    7.0921 C.3     1  UNL1        0.0096
     14 C          17.5326   43.0369    8.8015 C.3     1  UNL1        0.0000
     15 C          17.6145   43.8382    7.5197 C.3     1  UNL1        0.0005
     16 C           8.3897   41.5145   11.2052 C.2     1  UNL1        0.2527
     17 O           7.7895   41.4745   12.3118 O.2     1  UNL1       -0.2697
     18 N           9.4401   40.5687   10.9627 N.am    1  UNL1       -0.2658
     19 H           9.3596   39.6860   11.3911 H       1  UNL1        0.1566
     20 C           7.9513   42.4817   10.1726 C.ar    1  UNL1        0.0811
     21 C           8.4924   43.7818   10.1108 C.ar    1  UNL1        0.1445
     22 C           8.0416   44.6841    9.1420 C.ar    1  UNL1        0.0298
     23 C           7.0465   44.3073    8.2375 C.ar    1  UNL1        0.0023
     24 C           6.4971   43.0255    8.2991 C.ar    1  UNL1        0.0003
     25 C           6.9450   42.1199    9.2638 C.ar    1  UNL1        0.0068
     26 F           9.4680   44.1745   10.9676 F       1  UNL1       -0.2040
@<TRIPOS>BOND
     1    14    15    1
     2    15    13    1
     3    13    12    1
     4    12     8    1
     5     8    10   am
     6     2     7   ar
     7     3    18    1
     8     3     4   ar
     9    16    20    1
    10    21    26    1
    11    21    22   ar
    12    23    24   ar
    13    25    20   ar
    14     5     1   ar
    15     6     5    1
    16    10     1    1
    17    18    16   am
    18     8     9    2
    19     1     2   ar
    20     3     7   ar
    21    16    17    2
    22    20    21   ar
    23    22    23   ar
    24    24    25   ar
    25     4     5   ar
    26    10    11    1
    27    18    19    1
@<TRIPOS>MOLECULE
MolPort-000-115-472 4931121 MCULE-4916726914 PubChem-3231576 ZINC000004931121 ZINC04931121
 26 27 0 0 0
SMALL
GASTEIGER

@<TRIPOS>ATOM
      1 C          12.2355   41.0527    6.8625 C.ar    1  UNL1        0.0658
      2 C          11.5940   41.8416    5.9043 C.ar    1  UNL1        0.1146
      3 C           9.6954   40.4118    5.9181 C.ar    1  UNL1        0.1342
      4 C          10.3054   39.5847    6.8618 C.ar    1  UNL1        0.0315
      5 C          11.5828   39.8940    7.3328 C.ar    1  UNL1       -0.0041
      6 C          12.2404   38.9338    8.2639 C.3     1  UNL1        0.0325
      7 N          10.3496   41.5163    5.4649 N.ar    1  UNL1       -0.2277
      8 C          14.3166   42.5064    6.7360 C.2     1  UNL1        0.2261
      9 O          13.9793   43.0438    5.6477 O.2     1  UNL1       -0.2748
     10 N          13.5546   41.4241    7.2824 N.am    1  UNL1       -0.2829
     11 H          13.9685   40.8945    8.0017 H       1  UNL1        0.1549
     12 C          15.5603   42.9631    7.4217 C.3     1  UNL1        0.0854
     13 C          16.5146   43.6259    6.4409 C.3     1  UNL1        0.0096
     14 C          17.7387   43.6117    8.5914 C.3     1  UNL1        0.0000
     15 C          17.8049   44.0195    7.1350 C.3     1  UNL1        0.0005
     16 C           7.1580   40.4651    6.1395 C.2     1  UNL1        0.2527
     17 O           6.1619   39.7019    6.0314 O.2     1  UNL1       -0.2697
     18 N           8.3722   40.1038    5.4672 N.am    1  UNL1       -0.2658
     19 H           8.2885   39.6016    4.6246 H       1  UNL1        0.1566
     20 C           7.0262   41.7336    6.8929 C.ar    1  UNL1        0.0811
     21 C           7.1936   41.7747    8.2919 C.ar    1  UNL1        0.1445
     22 C           7.0376   42.9810    8.9820 C.ar    1  UNL1        0.0298
     23 C           6.7053   44.1490    8.2924 C.ar    1  UNL1        0.0023
     24 C           6.5264   44.1148    6.9084 C.ar    1  UNL1        0.0003
     25 C           6.6826   42.9128    6.2141 C.ar    1  UNL1        0.0068
     26 F           7.5277   40.6600    8.9891 F       1  UNL1       -0.2040
@<TRIPOS>BOND
     1    14    15    1
     2    15    13    1
     3    13    12    1
     4    12     8    1
     5     8    10   am
     6     2     7   ar
     7     3    18    1
     8     3     4   ar
     9    16    20    1
    10    21    26    1
    11    21    22   ar
    12    23    24   ar
    13    25    20   ar
    14     5     1   ar
    15     6     5    1
    16    10     1    1
    17    18    16   am
    18     8     9    2
    19     1     2   ar
    20     3     7   ar
    21    16    17    2
    22    20    21   ar
    23    22    23   ar
    24    24    25   ar
    25     4     5   ar
    26    10    11    1
    27    18    19    1
@<TRIPOS>MOLECULE
MolPort-000-115-472 4931121 MCULE-4916726914 PubChem-3231576 ZINC000004931121 ZINC04931121
 26 27 0 0 0
SMALL
GASTEIGER

@<TRIPOS>ATOM
      1 C          13.5295   41.9924    7.6793 C.ar    1  UNL1        0.0658
      2 C          12.2651   42.4987    7.3682 C.ar    1  UNL1        0.1146
      3 C          11.3136   41.4462    9.2751 C.ar    1  UNL1        0.1342
      4 C          12.5536   40.9041    9.6142 C.ar    1  UNL1        0.0315
      5 C          13.6673   41.1653    8.8137 C.ar    1  UNL1       -0.0041
      6 C          14.9511   40.4880    9.1525 C.3     1  UNL1        0.0325
      7 N          11.1989   42.2284    8.1667 N.ar    1  UNL1       -0.2277
      8 C          14.8280   43.5429    6.1399 C.2     1  UNL1        0.2261
      9 O          13.9034   44.3963    6.0787 O.2     1  UNL1       -0.2748
     10 N          14.6205   42.2883    6.7983 N.am    1  UNL1       -0.2829
     11 H          15.2778   41.5742    6.6332 H       1  UNL1        0.1549
     12 C          16.1261   43.8223    5.4600 C.3     1  UNL1        0.0854
     13 C          17.1255   44.4449    6.4220 C.3     1  UNL1        0.0096
     14 C          17.5519   43.5060    8.6715 C.3     1  UNL1        0.0000
     15 C          17.8627   43.3685    7.1962 C.3     1  UNL1        0.0005
     16 C           8.8151   41.1868    9.6995 C.2     1  UNL1        0.2527
     17 O           7.9310   41.5498   10.5199 O.2     1  UNL1       -0.2697
     18 N          10.1857   41.1996   10.1213 N.am    1  UNL1       -0.2658
     19 H          10.3661   41.0239   11.0731 H       1  UNL1        0.1566
     20 C           8.4107   40.6977    8.3611 C.ar    1  UNL1        0.0811
     21 C           7.4687   41.3973    7.5801 C.ar    1  UNL1        0.1445
     22 C           7.0849   40.8994    6.3308 C.ar    1  UNL1        0.0298
     23 C           7.6236   39.7025    5.8540 C.ar    1  UNL1        0.0023
     24 C           8.5486   38.9974    6.6261 C.ar    1  UNL1        0.0003
     25 C           8.9365   39.4913    7.8739 C.ar    1  UNL1        0.0068
     26 F           6.9357   42.5683    8.0100 F       1  UNL1       -0.2040
@<TRIPOS>BOND
     1    14    15    1
     2    15    13    1
     3    13    12    1
     4    12     8    1
     5     8    10   am
     6     2     7   ar
     7     3    18    1
     8     3     4   ar
     9    16    20    1
    10    21    26    1
    11    21    22   ar
    12    23    24   ar
    13    25    20   ar
    14     5     1   ar
    15     6     5    1
    16    10     1    1
    17    18    16   am
    18     8     9    2
    19     1     2   ar
    20     3     7   ar
    21    16    17    2
    22    20    21   ar
    23    22    23   ar
    24    24    25   ar
    25     4     5   ar
    26    10    11    1
    27    18    19    1
@<TRIPOS>MOLECULE
MolPort-000-115-472 4931121 MCULE-4916726914 PubChem-3231576 ZINC000004931121 ZINC04931121
 26 27 0 0 0
SMALL
GASTEIGER

@<TRIPOS>ATOM
      1 C          10.0266   40.6137    9.3265 C.ar    1  UNL1        0.0658
      2 C          10.9100   40.3600    8.2743 C.ar    1  UNL1        0.1146
      3 C          12.7642   40.3460    9.7613 C.ar    1  UNL1        0.1342
      4 C          11.9215   40.6174   10.8397 C.ar    1  UNL1        0.0315
      5 C          10.5491   40.7627   10.6283 C.ar    1  UNL1       -0.0041
      6 C           9.6963   41.1503   11.7876 C.3     1  UNL1        0.0325
      7 N          12.2415   40.2224    8.5103 N.ar    1  UNL1       -0.2277
      8 C           8.0061   42.0014    8.6544 C.2     1  UNL1        0.2261
      9 O           8.5959   43.1009    8.8288 O.2     1  UNL1       -0.2748
     10 N           8.6336   40.7695    9.0276 N.am    1  UNL1       -0.2829
     11 H           8.0645   39.9681    9.0830 H       1  UNL1        0.1549
     12 C           6.6151   41.9961    8.1155 C.3     1  UNL1        0.0854
     13 C           5.7998   43.1427    8.6922 C.3     1  UNL1        0.0096
     14 C           4.1853   44.7792    7.7764 C.3     1  UNL1        0.0000
     15 C           5.5882   44.2243    7.6497 C.3     1  UNL1        0.0005
     16 C          14.7710   38.9966   10.5625 C.2     1  UNL1        0.2527
     17 O          15.8184   39.1361   11.2480 O.2     1  UNL1       -0.2697
     18 N          14.1650   40.1656    9.9944 N.am    1  UNL1       -0.2658
     19 H          14.7628   40.9066    9.7436 H       1  UNL1        0.1566
     20 C          14.2411   37.6367   10.3095 C.ar    1  UNL1        0.0811
     21 C          14.8363   36.7848    9.3572 C.ar    1  UNL1        0.1445
     22 C          14.2998   35.5153    9.1191 C.ar    1  UNL1        0.0298
     23 C          13.1668   35.0879    9.8145 C.ar    1  UNL1        0.0023
     24 C          12.5644   35.9296   10.7511 C.ar    1  UNL1        0.0003
     25 C          13.0972   37.1979   10.9939 C.ar    1  UNL1        0.0068
     26 F          15.9441   37.1661    8.6735 F       1  UNL1       -0.2040
@<TRIPOS>BOND
     1    14    15    1
     2    15    13    1
     3    13    12    1
     4    12     8    1
     5     8    10   am
     6     2     7   ar
     7     3    18    1
     8     3     4   ar
     9    16    20    1
    10    21    26    1
    11    21    22   ar
    12    23    24   ar
    13    25    20   ar
    14     5     1   ar
    15     6     5    1
    16    10     1    1
    17    18    16   am
    18     8     9    2
    19     1     2   ar
    20     3     7   ar
    21    16    17    2
    22    20    21   ar
    23    22    23   ar
    24    24    25   ar
    25     4     5   ar
    26    10    11    1
    27    18    19    1
@<TRIPOS>MOLECULE
MolPort-000-115-472 4931121 MCULE-4916726914 PubChem-3231576 ZINC000004931121 ZINC04931121
 26 27 0 0 0
SMALL
GASTEIGER

@<TRIPOS>ATOM
      1 C          10.1414   40.9160    9.8407 C.ar    1  UNL1        0.0658
      2 C           9.6786   41.2320    8.5609 C.ar    1  UNL1        0.1146
      3 C           8.3583   43.0130    9.4180 C.ar    1  UNL1        0.1342
      4 C           8.7796   42.7216   10.7158 C.ar    1  UNL1        0.0315
      5 C           9.6658   41.6657   10.9369 C.ar    1  UNL1       -0.0041
      6 C          10.0139   41.3231   12.3451 C.3     1  UNL1        0.0325
      7 N           8.8166   42.2664    8.3757 N.ar    1  UNL1       -0.2277
      8 C          12.4624   39.9011   10.0477 C.2     1  UNL1        0.2261
      9 O          13.0496   40.9584    9.6949 O.2     1  UNL1       -0.2748
     10 N          11.0348   39.8053    9.9901 N.am    1  UNL1       -0.2829
     11 H          10.6365   38.9076   10.0583 H       1  UNL1        0.1549
     12 C          13.2726   38.7200   10.4648 C.3     1  UNL1        0.0854
     13 C          13.9805   38.9800   11.7852 C.3     1  UNL1        0.0096
     14 C          16.2144   39.2549   10.7569 C.3     1  UNL1        0.0000
     15 C          15.3999   38.4461   11.7439 C.3     1  UNL1        0.0005
     16 C           6.0912   44.0208    8.8398 C.2     1  UNL1        0.2527
     17 O           5.5909   44.9285    8.1241 O.2     1  UNL1       -0.2697
     18 N           7.4761   44.1187    9.1989 N.am    1  UNL1       -0.2658
     19 H           7.8518   45.0227    9.3037 H       1  UNL1        0.1566
     20 C           5.2265   42.9273    9.3403 C.ar    1  UNL1        0.0811
     21 C           3.8295   42.9557    9.1547 C.ar    1  UNL1        0.1445
     22 C           3.0334   41.9231    9.6606 C.ar    1  UNL1        0.0298
     23 C           3.6149   40.8640   10.3607 C.ar    1  UNL1        0.0023
     24 C           4.9964   40.8339   10.5589 C.ar    1  UNL1        0.0003
     25 C           5.7962   41.8619   10.0543 C.ar    1  UNL1        0.0068
     26 F           3.2355   43.9645    8.4694 F       1  UNL1       -0.2040
@<TRIPOS>BOND
     1    14    15    1
     2    15    13    1
     3    13    12    1
     4    12     8    1
     5     8    10   am
     6     2     7   ar
     7     3    18    1
     8     3     4   ar
     9    16    20    1
    10    21    26    1
    11    21    22   ar
    12    23    24   ar
    13    25    20   ar
    14     5     1   ar
    15     6     5    1
    16    10     1    1
    17    18    16   am
    18     8     9    2
    19     1     2   ar
    20     3     7   ar
    21    16    17    2
    22    20    21   ar
    23    22    23   ar
    24    24    25   ar
    25     4     5   ar
    26    10    11    1
    27    18    19    1
@<TRIPOS>MOLECULE
MolPort-000-115-472 4931121 MCULE-4916726914 PubChem-3231576 ZINC000004931121 ZINC04931121
 26 27 0 0 0
SMALL
GASTEIGER

@<TRIPOS>ATOM
      1 C          10.4222   41.6928    7.0760 C.ar    1  UNL1        0.0658
      2 C          10.7300   42.3084    8.2918 C.ar    1  UNL1        0.1146
      3 C          12.6688   40.9576    8.5482 C.ar    1  UNL1        0.1342
      4 C          12.3904   40.3026    7.3481 C.ar    1  UNL1        0.0315
      5 C          11.2606   40.6589    6.6092 C.ar    1  UNL1       -0.0041
      6 C          10.9432   39.8695    5.3855 C.3     1  UNL1        0.0325
      7 N          11.8375   41.9415    8.9891 N.ar    1  UNL1       -0.2277
      8 C           7.8976   41.7990    6.8015 C.2     1  UNL1        0.2261
      9 O           7.6800   40.9137    7.6710 O.2     1  UNL1       -0.2748
     10 N           9.2343   42.0995    6.3849 N.am    1  UNL1       -0.2829
     11 H           9.3458   42.6258    5.5604 H       1  UNL1        0.1549
     12 C           6.7429   42.4891    6.1567 C.3     1  UNL1        0.0854
     13 C           6.5426   43.8802    6.7370 C.3     1  UNL1        0.0096
     14 C           4.4315   44.5640    7.8319 C.3     1  UNL1        0.0000
     15 C           5.7325   43.8126    8.0179 C.3     1  UNL1        0.0005
     16 C          15.1958   40.8308    8.8449 C.2     1  UNL1        0.2527
     17 O          16.0869   40.0187    9.2095 O.2     1  UNL1       -0.2697
     18 N          13.8479   40.6076    9.2806 N.am    1  UNL1       -0.2658
     19 H          13.7229   40.1774   10.1572 H       1  UNL1        0.1566
     20 C          15.5747   42.0170    8.0428 C.ar    1  UNL1        0.0811
     21 C          16.6913   42.8060    8.3855 C.ar    1  UNL1        0.1445
     22 C          17.0115   43.9361    7.6262 C.ar    1  UNL1        0.0298
     23 C          16.2224   44.2957    6.5316 C.ar    1  UNL1        0.0023
     24 C          15.1082   43.5263    6.1922 C.ar    1  UNL1        0.0003
     25 C          14.7850   42.3957    6.9462 C.ar    1  UNL1        0.0068
     26 F          17.4841   42.4769    9.4359 F       1  UNL1       -0.2040
@<TRIPOS>BOND
     1    14    15    1
     2    15    13    1
     3    13    12    1
     4    12     8    1
     5     8    10   am
     6     2     7   ar
     7     3    18    1
     8     3     4   ar
     9    16    20    1
    10    21    26    1
    11    21    22   ar
    12    23    24   ar
    13    25    20   ar
    14     5     1   ar
    15     6     5    1
    16    10     1    1
    17    18    16   am
    18     8     9    2
    19     1     2   ar
    20     3     7   ar
    21    16    17    2
    22    20    21   ar
    23    22    23   ar
    24    24    25   ar
    25     4     5   ar
    26    10    11    1
    27    18    19    1
@<TRIPOS>MOLECULE
MolPort-000-115-472 4931121 MCULE-4916726914 PubChem-3231576 ZINC000004931121 ZINC04931121
 26 27 0 0 0
SMALL
GASTEIGER

@<TRIPOS>ATOM
      1 C          13.7206   41.4528    7.9770 C.ar    1  UNL1        0.0658
      2 C          13.2415   41.6026    6.6732 C.ar    1  UNL1        0.1146
      3 C          11.6004   39.9194    7.0239 C.ar    1  UNL1        0.1342
      4 C          12.0578   39.7229    8.3273 C.ar    1  UNL1        0.0315
      5 C          13.1266   40.4810    8.8092 C.ar    1  UNL1       -0.0041
      6 C          13.6500   40.1727   10.1703 C.3     1  UNL1        0.0325
      7 N          12.1986   40.8511    6.2317 N.ar    1  UNL1       -0.2277
      8 C          16.1616   41.7641    8.6131 C.2     1  UNL1        0.2261
      9 O          16.3807   40.5280    8.7181 O.2     1  UNL1       -0.2748
     10 N          14.8341   42.2537    8.3927 N.am    1  UNL1       -0.2829
     11 H          14.6740   43.2142    8.5380 H       1  UNL1        0.1549
     12 C          17.2906   42.7235    8.7875 C.3     1  UNL1        0.0854
     13 C          17.0487   44.0027    8.0021 C.3     1  UNL1        0.0096
     14 C          16.3174   44.0187    5.6381 C.3     1  UNL1        0.0000
     15 C          17.5020   43.8395    6.5635 C.3     1  UNL1        0.0005
     16 C           9.1142   39.3724    6.9254 C.2     1  UNL1        0.2527
     17 O           8.3408   38.3789    6.9610 O.2     1  UNL1       -0.2697
     18 N          10.4824   39.1605    6.5515 N.am    1  UNL1       -0.2658
     19 H          10.6684   38.4316    5.9163 H       1  UNL1        0.1566
     20 C           8.5769   40.7248    7.2012 C.ar    1  UNL1        0.0811
     21 C           8.6559   41.2955    8.4877 C.ar    1  UNL1        0.1445
     22 C           8.1169   42.5636    8.7270 C.ar    1  UNL1        0.0298
     23 C           7.4887   43.2675    7.6975 C.ar    1  UNL1        0.0023
     24 C           7.3960   42.7049    6.4233 C.ar    1  UNL1        0.0003
     25 C           7.9341   41.4393    6.1786 C.ar    1  UNL1        0.0068
     26 F           9.2697   40.6422    9.5059 F       1  UNL1       -0.2040
@<TRIPOS>BOND
     1    14    15    1
     2    15    13    1
     3    13    12    1
     4    12     8    1
     5     8    10   am
     6     2     7   ar
     7     3    18    1
     8     3     4   ar
     9    16    20    1
    10    21    26    1
    11    21    22   ar
    12    23    24   ar
    13    25    20   ar
    14     5     1   ar
    15     6     5    1
    16    10     1    1
    17    18    16   am
    18     8     9    2
    19     1     2   ar
    20     3     7   ar
    21    16    17    2
    22    20    21   ar
    23    22    23   ar
    24    24    25   ar
    25     4     5   ar
    26    10    11    1
    27    18    19    1
@<TRIPOS>MOLECULE
MolPort-000-115-472 4931121 MCULE-4916726914 PubChem-3231576 ZINC000004931121 ZINC04931121
 26 27 0 0 0
SMALL
GASTEIGER

@<TRIPOS>ATOM
      1 C           9.3219   42.4926    8.4498 C.ar    1  UNL1        0.0658
      2 C           8.3413   42.1634    7.5107 C.ar    1  UNL1        0.1146
      3 C           6.8215   43.7185    8.4704 C.ar    1  UNL1        0.1342
      4 C           7.7638   44.0655    9.4392 C.ar    1  UNL1        0.0315
      5 C           9.0161   43.4482    9.4414 C.ar    1  UNL1       -0.0041
      6 C           9.9578   43.7723   10.5503 C.3     1  UNL1        0.0325
      7 N           7.1311   42.7816    7.5323 N.ar    1  UNL1       -0.2277
      8 C          10.9194   40.6622    9.1967 C.2     1  UNL1        0.2261
      9 O          10.2287   40.3518   10.2035 O.2     1  UNL1       -0.2748
     10 N          10.5765   41.8014    8.3997 N.am    1  UNL1       -0.2829
     11 H          11.2545   42.1355    7.7689 H       1  UNL1        0.1549
     12 C          12.1425   39.8701    8.8775 C.3     1  UNL1        0.0854
     13 C          13.4011   40.6971    9.0879 C.3     1  UNL1        0.0096
     14 C          13.5458   39.4897   11.2430 C.3     1  UNL1        0.0000
     15 C          14.3378   40.0055   10.0603 C.3     1  UNL1        0.0005
     16 C           4.2849   43.7590    8.7027 C.2     1  UNL1        0.2527
     17 O           3.2677   44.2170    8.1179 O.2     1  UNL1       -0.2697
     18 N           5.5531   44.3818    8.4570 N.am    1  UNL1       -0.2658
     19 H           5.5512   45.3470    8.2628 H       1  UNL1        0.1566
     20 C           4.1313   42.6467    9.6688 C.ar    1  UNL1        0.0811
     21 C           4.4992   41.3284    9.3317 C.ar    1  UNL1        0.1445
     22 C           4.3191   40.2922   10.2535 C.ar    1  UNL1        0.0298
     23 C           3.7649   40.5544   11.5082 C.ar    1  UNL1        0.0023
     24 C           3.3873   41.8551   11.8460 C.ar    1  UNL1        0.0003
     25 C           3.5665   42.8940   10.9295 C.ar    1  UNL1        0.0068
     26 F           5.0505   41.0431    8.1255 F       1  UNL1       -0.2040
@<TRIPOS>BOND
     1    14    15    1
     2    15    13    1
     3    13    12    1
     4    12     8    1
     5     8    10   am
     6     2     7   ar
     7     3    18    1
     8     3     4   ar
     9    16    20    1
    10    21    26    1
    11    21    22   ar
    12    23    24   ar
    13    25    20   ar
    14     5     1   ar
    15     6     5    1
    16    10     1    1
    17    18    16   am
    18     8     9    2
    19     1     2   ar
    20     3     7   ar
    21    16    17    2
    22    20    21   ar
    23    22    23   ar
    24    24    25   ar
    25     4     5   ar
    26    10    11    1
    27    18    19    1
@<TRIPOS>MOLECULE
MolPort-000-115-472 4931121 MCULE-4916726914 PubChem-3231576 ZINC000004931121 ZINC04931121
 26 27 0 0 0
SMALL
GASTEIGER

@<TRIPOS>ATOM
      1 C          13.5787   39.2413    9.8804 C.ar    1  UNL1        0.0658
      2 C          13.1011   40.5539    9.9044 C.ar    1  UNL1        0.1146
      3 C          10.8853   39.8144    9.4656 C.ar    1  UNL1        0.1342
      4 C          11.3207   38.4898    9.4145 C.ar    1  UNL1        0.0315
      5 C          12.6712   38.1953    9.6117 C.ar    1  UNL1       -0.0041
      6 C          13.1131   36.7811    9.4507 C.3     1  UNL1        0.0325
      7 N          11.7806   40.8105    9.7099 N.ar    1  UNL1       -0.2277
      8 C          15.5869   38.5978   11.2993 C.2     1  UNL1        0.2261
      9 O          14.9469   38.6531   12.3830 O.2     1  UNL1       -0.2748
     10 N          14.9818   39.0203   10.0722 N.am    1  UNL1       -0.2829
     11 H          15.5751   39.1705    9.3010 H       1  UNL1        0.1549
     12 C          17.0097   38.1497   11.3133 C.3     1  UNL1        0.0854
     13 C          17.9166   39.1854   10.6676 C.3     1  UNL1        0.0096
     14 C          19.2169   37.0815   10.5894 C.3     1  UNL1        0.0000
     15 C          19.2377   38.5595   10.2624 C.3     1  UNL1        0.0005
     16 C           8.8911   40.6283    8.1052 C.2     1  UNL1        0.2527
     17 O           7.8790   41.3689    8.2216 O.2     1  UNL1       -0.2697
     18 N           9.4933   40.1017    9.2955 N.am    1  UNL1       -0.2658
     19 H           8.8994   39.9228   10.0600 H       1  UNL1        0.1566
     20 C           9.3821   40.2719    6.7540 C.ar    1  UNL1        0.0811
     21 C           9.1490   38.9953    6.2037 C.ar    1  UNL1        0.1445
     22 C           9.6465   38.6761    4.9362 C.ar    1  UNL1        0.0298
     23 C          10.3850   39.6149    4.2127 C.ar    1  UNL1        0.0023
     24 C          10.6302   40.8776    4.7550 C.ar    1  UNL1        0.0003
     25 C          10.1342   41.2020    6.0200 C.ar    1  UNL1        0.0068
     26 F           8.4257   38.0654    6.8763 F       1  UNL1       -0.2040
@<TRIPOS>BOND
     1    14    15    1
     2    15    13    1
     3    13    12    1
     4    12     8    1
     5     8    10   am
     6     2     7   ar
     7     3    18    1
     8     3     4   ar
     9    16    20    1
    10    21    26    1
    11    21    22   ar
    12    23    24   ar
    13    25    20   ar
    14     5     1   ar
    15     6     5    1
    16    10     1    1
    17    18    16   am
    18     8     9    2
    19     1     2   ar
    20     3     7   ar
    21    16    17    2
    22    20    21   ar
    23    22    23   ar
    24    24    25   ar
    25     4     5   ar
    26    10    11    1
    27    18    19    1
