@<TRIPOS>MOLECULE
MolPort-008-359-969 CSSS00159442944 MCULE-9166582463 PubChem-46982465
 25 26 0 0 0
SMALL
GASTEIGER

@<TRIPOS>ATOM
      1 C          10.4358   40.2392    7.6460 C.2     1  UNL1        0.2492
      2 N           9.4156   40.8050    8.4909 N.am    1  UNL1       -0.2736
      3 O          10.2034   39.1539    7.0452 O.2     1  UNL1       -0.2699
      4 C          11.7464   40.8993    7.4475 C.ar    1  UNL1        0.0537
      5 C          11.8740   41.9292    6.5044 C.ar    1  UNL1        0.0058
      6 C          13.0981   42.5789    6.3251 C.ar    1  UNL1        0.0148
      7 C          14.2138   42.2131    7.0919 C.ar    1  UNL1        0.0503
      8 C          14.0856   41.1948    8.0410 C.ar    1  UNL1        0.0148
      9 C          12.8613   40.5452    8.2204 C.ar    1  UNL1        0.0058
     10 C          15.8440   43.8191    5.9375 C.2     1  UNL1        0.2266
     11 C          17.2187   44.3828    5.9302 C.3     1  UNL1        0.0949
     12 N          15.4866   42.8554    6.9362 N.am    1  UNL1       -0.2839
     13 O          15.0172   44.1973    5.0662 O.2     1  UNL1       -0.2748
     14 H          16.1872   42.6089    7.5824 H       1  UNL1        0.1549
     15 C           9.7890   41.5052    9.7233 C.3     1  UNL1        0.0760
     16 C          10.6480   40.6390   10.6339 C.3     1  UNL1        0.0215
     17 C           9.7643   43.9888   10.2832 C.3     1  UNL1        0.0018
     18 C          10.4020   42.8822    9.4572 C.3     1  UNL1        0.0198
     19 C           8.0085   40.5174    8.2104 C.3     1  UNL1        0.1205
     20 C           7.2522   41.7797    7.9605 C.ar    1  UNL1        0.0008
     21 C           7.5362   42.5573    6.8350 C.ar    1  UNL1        0.0181
     22 C           6.8032   43.7244    6.6090 C.ar    1  UNL1        0.0986
     23 C           5.5282   43.3474    8.5766 C.ar    1  UNL1        0.0986
     24 C           6.2386   42.1736    8.8375 C.ar    1  UNL1        0.0181
     25 N           5.8227   44.0929    7.4773 N.ar    1  UNL1       -0.2423
@<TRIPOS>BOND
     1    17    18    1
     2    15    18    1
     3    15    16    1
     4    15     2    1
     5    19     2    1
     6    19    20    1
     7    21    22   ar
     8    23    25   ar
     9    24    20   ar
    10     1     4    1
    11     5     6   ar
    12     7     8   ar
    13     7    12    1
    14     9     4   ar
    15    11    10    1
    16     2     1   am
    17    12    10   am
    18    20    21   ar
    19    22    25   ar
    20    23    24   ar
    21     1     3    2
    22     4     5   ar
    23     6     7   ar
    24     8     9   ar
    25    10    13    2
    26    12    14    1
@<TRIPOS>MOLECULE
MolPort-008-359-969 CSSS00159442944 MCULE-9166582463 PubChem-46982465
 25 26 0 0 0
SMALL
GASTEIGER

@<TRIPOS>ATOM
      1 C           8.9996   40.9496    8.1101 C.2     1  UNL1        0.2492
      2 N           7.8545   41.7744    7.8213 N.am    1  UNL1       -0.2736
      3 O           8.8336   39.8652    8.7341 O.2     1  UNL1       -0.2699
      4 C          10.3667   41.3270    7.6843 C.ar    1  UNL1        0.0537
      5 C          10.7143   41.2767    6.3268 C.ar    1  UNL1        0.0058
      6 C          11.9925   41.6551    5.9076 C.ar    1  UNL1        0.0148
      7 C          12.9424   42.0968    6.8398 C.ar    1  UNL1        0.0503
      8 C          12.5940   42.1590    8.1922 C.ar    1  UNL1        0.0148
      9 C          11.3157   41.7808    8.6113 C.ar    1  UNL1        0.0058
     10 C          14.6446   43.7387    5.8518 C.2     1  UNL1        0.2266
     11 C          16.0713   43.9765    5.5119 C.3     1  UNL1        0.0949
     12 N          14.2643   42.4925    6.4486 N.am    1  UNL1       -0.2839
     13 O          13.7946   44.6356    5.6093 O.2     1  UNL1       -0.2748
     14 H          14.9849   41.8405    6.6063 H       1  UNL1        0.1549
     15 C           7.9769   43.2348    7.8485 C.3     1  UNL1        0.0760
     16 C           6.7853   43.9195    7.1939 C.3     1  UNL1        0.0215
     17 C           8.0132   45.2667    9.3823 C.3     1  UNL1        0.0018
     18 C           8.2814   43.7756    9.2476 C.3     1  UNL1        0.0198
     19 C           6.5366   41.1529    7.6853 C.3     1  UNL1        0.1205
     20 C           5.7836   41.2271    8.9719 C.ar    1  UNL1        0.0008
     21 C           4.3901   41.1275    8.9767 C.ar    1  UNL1        0.0181
     22 C           3.7062   41.1792   10.1932 C.ar    1  UNL1        0.0986
     23 C           5.7525   41.4164   11.3745 C.ar    1  UNL1        0.0986
     24 C           6.4727   41.3689   10.1788 C.ar    1  UNL1        0.0181
     25 N           4.3954   41.3218   11.3576 N.ar    1  UNL1       -0.2423
@<TRIPOS>BOND
     1    17    18    1
     2    15    18    1
     3    15    16    1
     4    15     2    1
     5    19     2    1
     6    19    20    1
     7    21    22   ar
     8    23    25   ar
     9    24    20   ar
    10     1     4    1
    11     5     6   ar
    12     7     8   ar
    13     7    12    1
    14     9     4   ar
    15    11    10    1
    16     2     1   am
    17    12    10   am
    18    20    21   ar
    19    22    25   ar
    20    23    24   ar
    21     1     3    2
    22     4     5   ar
    23     6     7   ar
    24     8     9   ar
    25    10    13    2
    26    12    14    1
@<TRIPOS>MOLECULE
MolPort-008-359-969 CSSS00159442944 MCULE-9166582463 PubChem-46982465
 25 26 0 0 0
SMALL
GASTEIGER

@<TRIPOS>ATOM
      1 C          10.5118   40.4368    8.2860 C.2     1  UNL1        0.2492
      2 N           9.6296   41.0585    9.2400 N.am    1  UNL1       -0.2736
      3 O          10.1399   39.3811    7.7029 O.2     1  UNL1       -0.2699
      4 C          11.8382   41.0061    7.9558 C.ar    1  UNL1        0.0537
      5 C          11.9478   41.9933    6.9659 C.ar    1  UNL1        0.0058
      6 C          13.1893   42.5583    6.6623 C.ar    1  UNL1        0.0148
      7 C          14.3413   42.1495    7.3494 C.ar    1  UNL1        0.0503
      8 C          14.2324   41.1741    8.3449 C.ar    1  UNL1        0.0148
      9 C          12.9908   40.6092    8.6486 C.ar    1  UNL1        0.0058
     10 C          15.9494   43.6614    6.0464 C.2     1  UNL1        0.2266
     11 C          17.3521   44.1283    5.8981 C.3     1  UNL1        0.0949
     12 N          15.6328   42.7050    7.0657 N.am    1  UNL1       -0.2839
     13 O          15.0635   44.1135    5.2740 O.2     1  UNL1       -0.2748
     14 H          16.3790   42.3974    7.6294 H       1  UNL1        0.1549
     15 C          10.1801   41.7092   10.4325 C.3     1  UNL1        0.0760
     16 C          10.1505   43.2269   10.3195 C.3     1  UNL1        0.0215
     17 C           8.3792   42.0434   12.2011 C.3     1  UNL1        0.0018
     18 C           9.5502   41.1949   11.7292 C.3     1  UNL1        0.0198
     19 C           8.1837   40.8757    9.1078 C.3     1  UNL1        0.1205
     20 C           7.5831   41.9849    8.3099 C.ar    1  UNL1        0.0008
     21 C           6.8448   42.9868    8.9448 C.ar    1  UNL1        0.0181
     22 C           6.3083   44.0265    8.1823 C.ar    1  UNL1        0.0986
     23 C           7.2277   43.0957    6.2005 C.ar    1  UNL1        0.0986
     24 C           7.7806   42.0394    6.9279 C.ar    1  UNL1        0.0181
     25 N           6.5085   44.0594    6.8369 N.ar    1  UNL1       -0.2423
@<TRIPOS>BOND
     1    17    18    1
     2    15    18    1
     3    15    16    1
     4    15     2    1
     5    19     2    1
     6    19    20    1
     7    21    22   ar
     8    23    25   ar
     9    24    20   ar
    10     1     4    1
    11     5     6   ar
    12     7     8   ar
    13     7    12    1
    14     9     4   ar
    15    11    10    1
    16     2     1   am
    17    12    10   am
    18    20    21   ar
    19    22    25   ar
    20    23    24   ar
    21     1     3    2
    22     4     5   ar
    23     6     7   ar
    24     8     9   ar
    25    10    13    2
    26    12    14    1
@<TRIPOS>MOLECULE
MolPort-008-359-969 CSSS00159442944 MCULE-9166582463 PubChem-46982465
 25 26 0 0 0
SMALL
GASTEIGER

@<TRIPOS>ATOM
      1 C          13.1643   39.0810   10.9145 C.2     1  UNL1        0.2492
      2 N          14.0041   37.9777   10.5241 N.am    1  UNL1       -0.2736
      3 O          13.2318   39.5154   12.0975 O.2     1  UNL1       -0.2699
      4 C          12.2328   39.7329    9.9659 C.ar    1  UNL1        0.0537
      5 C          12.5363   41.0005    9.4487 C.ar    1  UNL1        0.0058
      6 C          11.6795   41.6163    8.5325 C.ar    1  UNL1        0.0148
      7 C          10.5075   40.9705    8.1133 C.ar    1  UNL1        0.0503
      8 C          10.2092   39.7017    8.6185 C.ar    1  UNL1        0.0148
      9 C          11.0661   39.0858    9.5346 C.ar    1  UNL1        0.0058
     10 C           8.3868   42.2639    7.4814 C.2     1  UNL1        0.2266
     11 C           7.5716   42.8250    6.3731 C.3     1  UNL1        0.0949
     12 N           9.6031   41.5703    7.1756 N.am    1  UNL1       -0.2839
     13 O           7.9949   42.4070    8.6695 O.2     1  UNL1       -0.2748
     14 H           9.8426   41.4981    6.2234 H       1  UNL1        0.1549
     15 C          13.5047   36.9742    9.5796 C.3     1  UNL1        0.0760
     16 C          14.4538   36.7722    8.4067 C.3     1  UNL1        0.0215
     17 C          11.7027   35.6813   10.8301 C.3     1  UNL1        0.0018
     18 C          13.1144   35.6621   10.2642 C.3     1  UNL1        0.0198
     19 C          15.2778   37.7648   11.2124 C.3     1  UNL1        0.1205
     20 C          16.3642   38.5606   10.5688 C.ar    1  UNL1        0.0008
     21 C          16.0803   39.8043    9.9992 C.ar    1  UNL1        0.0181
     22 C          17.1150   40.5419    9.4197 C.ar    1  UNL1        0.0986
     23 C          18.6814   38.8437    9.9690 C.ar    1  UNL1        0.0986
     24 C          17.6744   38.0760   10.5582 C.ar    1  UNL1        0.0181
     25 N          18.3838   40.0506    9.4160 N.ar    1  UNL1       -0.2423
@<TRIPOS>BOND
     1    17    18    1
     2    15    18    1
     3    15    16    1
     4    15     2    1
     5    19     2    1
     6    19    20    1
     7    21    22   ar
     8    23    25   ar
     9    24    20   ar
    10     1     4    1
    11     5     6   ar
    12     7     8   ar
    13     7    12    1
    14     9     4   ar
    15    11    10    1
    16     2     1   am
    17    12    10   am
    18    20    21   ar
    19    22    25   ar
    20    23    24   ar
    21     1     3    2
    22     4     5   ar
    23     6     7   ar
    24     8     9   ar
    25    10    13    2
    26    12    14    1
@<TRIPOS>MOLECULE
MolPort-008-359-969 CSSS00159442944 MCULE-9166582463 PubChem-46982465
 25 26 0 0 0
SMALL
GASTEIGER

@<TRIPOS>ATOM
      1 C          10.5694   40.8097    7.5485 C.2     1  UNL1        0.2492
      2 N           9.6091   41.4293    8.4254 N.am    1  UNL1       -0.2736
      3 O          10.1831   39.9096    6.7528 O.2     1  UNL1       -0.2699
      4 C          11.9960   41.2064    7.5405 C.ar    1  UNL1        0.0537
      5 C          12.4136   42.2960    6.7629 C.ar    1  UNL1        0.0058
      6 C          13.7520   42.6979    6.7661 C.ar    1  UNL1        0.0148
      7 C          14.6939   42.0200    7.5532 C.ar    1  UNL1        0.0503
      8 C          14.2773   40.9409    8.3384 C.ar    1  UNL1        0.0148
      9 C          12.9389   40.5392    8.3353 C.ar    1  UNL1        0.0058
     10 C          16.6099   43.7078    7.3304 C.2     1  UNL1        0.2266
     11 C          18.0785   43.9198    7.4067 C.3     1  UNL1        0.0949
     12 N          16.0760   42.4019    7.5823 N.am    1  UNL1       -0.2839
     13 O          15.8601   44.6785    7.0456 O.2     1  UNL1       -0.2748
     14 H          16.7251   41.6937    7.7975 H       1  UNL1        0.1549
     15 C          10.0021   41.8255    9.7808 C.3     1  UNL1        0.0760
     16 C          10.7578   40.7185   10.5024 C.3     1  UNL1        0.0215
     17 C           9.8007   44.3546    9.9940 C.3     1  UNL1        0.0018
     18 C          10.7356   43.1684    9.8138 C.3     1  UNL1        0.0198
     19 C           8.2032   41.4903    8.0239 C.3     1  UNL1        0.1205
     20 C           7.3106   41.4220    9.2182 C.ar    1  UNL1        0.0008
     21 C           5.9491   41.1502    9.0626 C.ar    1  UNL1        0.0181
     22 C           5.1351   41.0709   10.1946 C.ar    1  UNL1        0.0986
     23 C           6.9926   41.5156   11.6056 C.ar    1  UNL1        0.0986
     24 C           7.8396   41.6028   10.4985 C.ar    1  UNL1        0.0181
     25 N           5.6688   41.2541   11.4327 N.ar    1  UNL1       -0.2423
@<TRIPOS>BOND
     1    17    18    1
     2    15    18    1
     3    15    16    1
     4    15     2    1
     5    19     2    1
     6    19    20    1
     7    21    22   ar
     8    23    25   ar
     9    24    20   ar
    10     1     4    1
    11     5     6   ar
    12     7     8   ar
    13     7    12    1
    14     9     4   ar
    15    11    10    1
    16     2     1   am
    17    12    10   am
    18    20    21   ar
    19    22    25   ar
    20    23    24   ar
    21     1     3    2
    22     4     5   ar
    23     6     7   ar
    24     8     9   ar
    25    10    13    2
    26    12    14    1
@<TRIPOS>MOLECULE
MolPort-008-359-969 CSSS00159442944 MCULE-9166582463 PubChem-46982465
 25 26 0 0 0
SMALL
GASTEIGER

@<TRIPOS>ATOM
      1 C          12.0030   40.5513    9.4917 C.2     1  UNL1        0.2492
      2 N          11.3465   41.1123    8.3388 N.am    1  UNL1       -0.2736
      3 O          11.5625   40.8243   10.6425 O.2     1  UNL1       -0.2699
      4 C          13.1718   39.6506    9.3691 C.ar    1  UNL1        0.0537
      5 C          14.4500   40.1144    9.7116 C.ar    1  UNL1        0.0058
      6 C          15.5582   39.2674    9.6259 C.ar    1  UNL1        0.0148
      7 C          15.4045   37.9396    9.2022 C.ar    1  UNL1        0.0503
      8 C          14.1293   37.4718    8.8717 C.ar    1  UNL1        0.0148
      9 C          13.0211   38.3187    8.9576 C.ar    1  UNL1        0.0058
     10 C          17.4377   36.6944   10.1431 C.2     1  UNL1        0.2266
     11 C          18.5373   35.7380    9.8540 C.3     1  UNL1        0.0949
     12 N          16.5174   37.0407    9.1004 N.am    1  UNL1       -0.2839
     13 O          17.3336   37.1843   11.2984 O.2     1  UNL1       -0.2748
     14 H          16.6643   36.6177    8.2237 H       1  UNL1        0.1549
     15 C          12.1331   41.5079    7.1670 C.3     1  UNL1        0.0760
     16 C          11.2539   41.7775    5.9540 C.3     1  UNL1        0.0215
     17 C          14.4991   42.4130    6.9110 C.3     1  UNL1        0.0018
     18 C          13.1037   42.6528    7.4668 C.3     1  UNL1        0.0198
     19 C           9.9257   41.4545    8.4158 C.3     1  UNL1        0.1205
     20 C           9.0997   40.4401    7.6973 C.ar    1  UNL1        0.0008
     21 C           9.4862   39.0976    7.6895 C.ar    1  UNL1        0.0181
     22 C           8.6885   38.1613    7.0282 C.ar    1  UNL1        0.0986
     23 C           7.1513   39.8597    6.4025 C.ar    1  UNL1        0.0986
     24 C           7.9218   40.8261    7.0528 C.ar    1  UNL1        0.0181
     25 N           7.5471   38.5580    6.4030 N.ar    1  UNL1       -0.2423
@<TRIPOS>BOND
     1    17    18    1
     2    15    18    1
     3    15    16    1
     4    15     2    1
     5    19     2    1
     6    19    20    1
     7    21    22   ar
     8    23    25   ar
     9    24    20   ar
    10     1     4    1
    11     5     6   ar
    12     7     8   ar
    13     7    12    1
    14     9     4   ar
    15    11    10    1
    16     2     1   am
    17    12    10   am
    18    20    21   ar
    19    22    25   ar
    20    23    24   ar
    21     1     3    2
    22     4     5   ar
    23     6     7   ar
    24     8     9   ar
    25    10    13    2
    26    12    14    1
@<TRIPOS>MOLECULE
MolPort-008-359-969 CSSS00159442944 MCULE-9166582463 PubChem-46982465
 25 26 0 0 0
SMALL
GASTEIGER

@<TRIPOS>ATOM
      1 C          10.9473   40.3166    7.4816 C.2     1  UNL1        0.2492
      2 N           9.8861   40.7253    8.3658 N.am    1  UNL1       -0.2736
      3 O          10.7940   39.2818    6.7755 O.2     1  UNL1       -0.2699
      4 C          12.2095   41.0818    7.3635 C.ar    1  UNL1        0.0537
      5 C          13.3278   40.7058    8.1214 C.ar    1  UNL1        0.0058
      6 C          14.5331   41.4024    8.0005 C.ar    1  UNL1        0.0148
      7 C          14.6414   42.4832    7.1137 C.ar    1  UNL1        0.0503
      8 C          13.5312   42.8521    6.3484 C.ar    1  UNL1        0.0148
      9 C          12.3259   42.1553    6.4692 C.ar    1  UNL1        0.0058
     10 C          17.0168   43.1518    7.8063 C.2     1  UNL1        0.2266
     11 C          18.1982   43.9969    7.4937 C.3     1  UNL1        0.0949
     12 N          15.8606   43.2231    6.9625 N.am    1  UNL1       -0.2839
     13 O          17.0517   42.3881    8.8070 O.2     1  UNL1       -0.2748
     14 H          15.9083   43.8442    6.2001 H       1  UNL1        0.1549
     15 C          10.2038   41.3256    9.6647 C.3     1  UNL1        0.0760
     16 C          11.0646   40.4084   10.5219 C.3     1  UNL1        0.0215
     17 C           9.9411   43.7908   10.2446 C.3     1  UNL1        0.0018
     18 C          10.7801   42.7377    9.5370 C.3     1  UNL1        0.0198
     19 C           8.5038   40.3702    8.0423 C.3     1  UNL1        0.1205
     20 C           7.6211   41.5718    8.1108 C.ar    1  UNL1        0.0008
     21 C           7.7745   42.6093    7.1879 C.ar    1  UNL1        0.0181
     22 C           6.9252   43.7157    7.2571 C.ar    1  UNL1        0.0986
     23 C           5.7906   42.7734    9.1183 C.ar    1  UNL1        0.0986
     24 C           6.6199   41.6502    9.0820 C.ar    1  UNL1        0.0181
     25 N           5.9588   43.7750    8.2131 N.ar    1  UNL1       -0.2423
@<TRIPOS>BOND
     1    17    18    1
     2    15    18    1
     3    15    16    1
     4    15     2    1
     5    19     2    1
     6    19    20    1
     7    21    22   ar
     8    23    25   ar
     9    24    20   ar
    10     1     4    1
    11     5     6   ar
    12     7     8   ar
    13     7    12    1
    14     9     4   ar
    15    11    10    1
    16     2     1   am
    17    12    10   am
    18    20    21   ar
    19    22    25   ar
    20    23    24   ar
    21     1     3    2
    22     4     5   ar
    23     6     7   ar
    24     8     9   ar
    25    10    13    2
    26    12    14    1
@<TRIPOS>MOLECULE
MolPort-008-359-969 CSSS00159442944 MCULE-9166582463 PubChem-46982465
 25 26 0 0 0
SMALL
GASTEIGER

@<TRIPOS>ATOM
      1 C          11.6127   41.2694    9.5078 C.2     1  UNL1        0.2492
      2 N          10.5242   40.4626    9.0187 N.am    1  UNL1       -0.2736
      3 O          11.4241   42.5020    9.7026 O.2     1  UNL1       -0.2699
      4 C          12.9448   40.6947    9.8041 C.ar    1  UNL1        0.0537
      5 C          13.1237   39.8970   10.9434 C.ar    1  UNL1        0.0058
      6 C          14.3687   39.3265   11.2213 C.ar    1  UNL1        0.0148
      7 C          15.4543   39.5395   10.3596 C.ar    1  UNL1        0.0503
      8 C          15.2750   40.3245    9.2169 C.ar    1  UNL1        0.0148
      9 C          14.0298   40.8948    8.9389 C.ar    1  UNL1        0.0058
     10 C          17.1157   37.5922   10.4919 C.2     1  UNL1        0.2266
     11 C          18.5118   37.1839   10.7945 C.3     1  UNL1        0.0949
     12 N          16.7471   38.9720   10.6113 N.am    1  UNL1       -0.2839
     13 O          16.2806   36.7193   10.1364 O.2     1  UNL1       -0.2748
     14 H          17.4547   39.5948   10.8956 H       1  UNL1        0.1549
     15 C          10.7877   39.3627    8.0863 C.3     1  UNL1        0.0760
     16 C          11.4157   39.8524    6.7890 C.3     1  UNL1        0.0215
     17 C          10.7247   37.3775    9.6792 C.3     1  UNL1        0.0018
     18 C          11.5692   38.2161    8.7320 C.3     1  UNL1        0.0198
     19 C           9.1465   40.8612    9.3094 C.3     1  UNL1        0.1205
     20 C           8.3874   41.0940    8.0455 C.ar    1  UNL1        0.0008
     21 C           8.4709   42.3267    7.3932 C.ar    1  UNL1        0.0181
     22 C           7.7686   42.5172    6.2012 C.ar    1  UNL1        0.0986
     23 C           6.9247   40.2997    6.3022 C.ar    1  UNL1        0.0986
     24 C           7.6121   40.0700    7.4961 C.ar    1  UNL1        0.0181
     25 N           7.0157   41.5085    5.6845 N.ar    1  UNL1       -0.2423
@<TRIPOS>BOND
     1    17    18    1
     2    15    18    1
     3    15    16    1
     4    15     2    1
     5    19     2    1
     6    19    20    1
     7    21    22   ar
     8    23    25   ar
     9    24    20   ar
    10     1     4    1
    11     5     6   ar
    12     7     8   ar
    13     7    12    1
    14     9     4   ar
    15    11    10    1
    16     2     1   am
    17    12    10   am
    18    20    21   ar
    19    22    25   ar
    20    23    24   ar
    21     1     3    2
    22     4     5   ar
    23     6     7   ar
    24     8     9   ar
    25    10    13    2
    26    12    14    1
@<TRIPOS>MOLECULE
MolPort-008-359-969 CSSS00159442944 MCULE-9166582463 PubChem-46982465
 25 26 0 0 0
SMALL
GASTEIGER

@<TRIPOS>ATOM
      1 C          11.0703   41.5855    9.0927 C.2     1  UNL1        0.2492
      2 N          10.0380   40.7044    8.6100 N.am    1  UNL1       -0.2736
      3 O          10.7619   42.7575    9.4452 O.2     1  UNL1       -0.2699
      4 C          12.4826   41.1544    9.2028 C.ar    1  UNL1        0.0537
      5 C          12.8621   40.2557   10.2100 C.ar    1  UNL1        0.0058
      6 C          14.1861   39.8199   10.3096 C.ar    1  UNL1        0.0148
      7 C          15.1514   40.2713    9.3981 C.ar    1  UNL1        0.0503
      8 C          14.7726   41.1579    8.3859 C.ar    1  UNL1        0.0148
      9 C          13.4485   41.5936    8.2863 C.ar    1  UNL1        0.0058
     10 C          17.1742   39.2459   10.5924 C.2     1  UNL1        0.2266
     11 C          18.6069   38.8680   10.4828 C.3     1  UNL1        0.0949
     12 N          16.5197   39.8476    9.4683 N.am    1  UNL1       -0.2839
     13 O          16.5601   39.0315   11.6706 O.2     1  UNL1       -0.2748
     14 H          17.0660   39.9843    8.6608 H       1  UNL1        0.1549
     15 C          10.3309   39.7501    7.5367 C.3     1  UNL1        0.0760
     16 C           9.5212   38.4686    7.6759 C.3     1  UNL1        0.0215
     17 C          11.5736   40.7311    5.5427 C.3     1  UNL1        0.0018
     18 C          10.2223   40.3764    6.1444 C.3     1  UNL1        0.0198
     19 C           8.6599   40.8946    9.0642 C.3     1  UNL1        0.1205
     20 C           7.9899   41.9720    8.2781 C.ar    1  UNL1        0.0008
     21 C           7.5202   41.7117    6.9884 C.ar    1  UNL1        0.0181
     22 C           6.8782   42.7280    6.2775 C.ar    1  UNL1        0.0986
     23 C           7.1589   44.2273    8.0976 C.ar    1  UNL1        0.0986
     24 C           7.8059   43.2374    8.8407 C.ar    1  UNL1        0.0181
     25 N           6.7125   43.9550    6.8416 N.ar    1  UNL1       -0.2423
@<TRIPOS>BOND
     1    17    18    1
     2    15    18    1
     3    15    16    1
     4    15     2    1
     5    19     2    1
     6    19    20    1
     7    21    22   ar
     8    23    25   ar
     9    24    20   ar
    10     1     4    1
    11     5     6   ar
    12     7     8   ar
    13     7    12    1
    14     9     4   ar
    15    11    10    1
    16     2     1   am
    17    12    10   am
    18    20    21   ar
    19    22    25   ar
    20    23    24   ar
    21     1     3    2
    22     4     5   ar
    23     6     7   ar
    24     8     9   ar
    25    10    13    2
    26    12    14    1
@<TRIPOS>MOLECULE
MolPort-008-359-969 CSSS00159442944 MCULE-9166582463 PubChem-46982465
 25 26 0 0 0
SMALL
GASTEIGER

@<TRIPOS>ATOM
      1 C          11.1318   40.9630    9.4517 C.2     1  UNL1        0.2492
      2 N          11.7305   40.3298    8.3047 N.am    1  UNL1       -0.2736
      3 O          11.7378   40.9285   10.5582 O.2     1  UNL1       -0.2699
      4 C           9.8319   41.6675    9.3705 C.ar    1  UNL1        0.0537
      5 C           9.4945   42.3792    8.2104 C.ar    1  UNL1        0.0058
      6 C           8.2603   43.0268    8.1096 C.ar    1  UNL1        0.0148
      7 C           7.3401   42.9673    9.1660 C.ar    1  UNL1        0.0503
      8 C           7.6697   42.2482   10.3187 C.ar    1  UNL1        0.0148
      9 C           8.9038   41.6004   10.4194 C.ar    1  UNL1        0.0058
     10 C           5.4183   44.1223    7.9242 C.2     1  UNL1        0.2266
     11 C           4.0878   44.7721    8.0472 C.3     1  UNL1        0.0949
     12 N           6.0644   43.6193    9.1004 N.am    1  UNL1       -0.2839
     13 O           5.9552   44.0252    6.7893 O.2     1  UNL1       -0.2748
     14 H           5.5827   43.7332    9.9515 H       1  UNL1        0.1549
     15 C          10.8853   39.6593    7.3125 C.3     1  UNL1        0.0760
     16 C          11.6356   39.3828    6.0172 C.3     1  UNL1        0.0215
     17 C           8.8686   38.1108    7.1803 C.3     1  UNL1        0.0018
     18 C          10.1868   38.4187    7.8741 C.3     1  UNL1        0.0198
     19 C          13.1864   40.1998    8.2334 C.3     1  UNL1        0.1205
     20 C          13.8038   41.4601    7.7253 C.ar    1  UNL1        0.0008
     21 C          15.1465   41.7408    7.9905 C.ar    1  UNL1        0.0181
     22 C          15.7102   42.9159    7.4889 C.ar    1  UNL1        0.0986
     23 C          13.6478   43.5152    6.4756 C.ar    1  UNL1        0.0986
     24 C          13.0475   42.3505    6.9593 C.ar    1  UNL1        0.0181
     25 N          14.9557   43.7723    6.7483 N.ar    1  UNL1       -0.2423
@<TRIPOS>BOND
     1    17    18    1
     2    15    18    1
     3    15    16    1
     4    15     2    1
     5    19     2    1
     6    19    20    1
     7    21    22   ar
     8    23    25   ar
     9    24    20   ar
    10     1     4    1
    11     5     6   ar
    12     7     8   ar
    13     7    12    1
    14     9     4   ar
    15    11    10    1
    16     2     1   am
    17    12    10   am
    18    20    21   ar
    19    22    25   ar
    20    23    24   ar
    21     1     3    2
    22     4     5   ar
    23     6     7   ar
    24     8     9   ar
    25    10    13    2
    26    12    14    1
