@<TRIPOS>MOLECULE
MolPort-035-706-979 CSSS03437789234 MCULE-2375191643 PubChem-91938304
 30 32 0 0 0
SMALL
GASTEIGER

@<TRIPOS>ATOM
      1 C          10.6288   40.3703    6.4936 C.3     1  UNL1        0.2880
      2 C          10.6101   41.8897    6.5832 C.3     1  UNL1        0.0650
      3 C          12.0244   38.9701    8.0504 C.ar    1  UNL1        0.1542
      4 C          13.3025   38.5588    8.4395 C.ar    1  UNL1        0.0529
      5 C          13.4646   37.6064    9.4517 C.ar    1  UNL1        0.0537
      6 C          12.3287   37.0678   10.0759 C.ar    1  UNL1        0.0162
      7 C          11.0493   37.4785    9.6915 C.ar    1  UNL1        0.0190
      8 C          10.8989   38.4287    8.6790 C.ar    1  UNL1        0.0850
      9 C           9.4330   39.8205    7.2455 C.2     1  UNL1        0.2732
     10 O          11.8817   39.9237    7.0366 O.3     1  UNL1       -0.4618
     11 O           8.2687   40.1949    6.9404 O.2     1  UNL1       -0.2704
     12 N           9.6011   38.8612    8.2891 N.am    1  UNL1       -0.2783
     13 H           8.8091   38.4944    8.7445 H       1  UNL1        0.1551
     14 C          15.8642   38.0663   10.2463 C.2     1  UNL1        0.2524
     15 O          15.6829   39.3122   10.3290 O.2     1  UNL1       -0.2697
     16 N          14.7934   37.2112    9.8186 N.am    1  UNL1       -0.2802
     17 H          14.9931   36.2483    9.7721 H       1  UNL1        0.1552
     18 C          17.1925   37.5021   10.5953 C.ar    1  UNL1        0.0876
     19 C          17.2566   36.5324   11.6099 C.ar    1  UNL1        0.0076
     20 C          18.4735   35.9624   11.9858 C.ar    1  UNL1        0.0003
     21 C          19.6502   36.3541   11.3510 C.ar    1  UNL1        0.0031
     22 C          19.6088   37.3152   10.3411 C.ar    1  UNL1        0.0371
     23 C          18.3906   37.8988    9.9509 C.ar    1  UNL1        0.1430
     24 C          19.0200   40.1200    9.0442 C.3     1  UNL1        0.2525
     25 O          18.3666   38.8623    8.9351 O.3     1  UNL1       -0.4713
     26 C          10.5456   39.9397    5.0543 C.2     1  UNL1        0.3623
     27 O          10.3589   40.7956    4.1443 O.2     1  UNL1       -0.2457
     28 O          10.6069   38.5781    4.7390 O.3     1  UNL1       -0.4458
     29 C          10.0875   36.8867    3.0957 C.3     1  UNL1        0.0513
     30 C           9.5413   37.8898    4.0951 C.3     1  UNL1        0.2087
@<TRIPOS>BOND
     1    29    30    1
     2    30    28    1
     3    26    28    1
     4     1    26    1
     5     1     2    1
     6     1    10    1
     7     1     9    1
     8     3    10    1
     9     4     5   ar
    10     5    16    1
    11    14    18    1
    12    19    20   ar
    13    21    22   ar
    14    23    25    1
    15    23    18   ar
    16    24    25    1
    17     6     7   ar
    18     8    12    1
    19     8     3   ar
    20    16    14   am
    21    12     9   am
    22    26    27    2
    23     3     4   ar
    24     5     6   ar
    25    14    15    2
    26    18    19   ar
    27    20    21   ar
    28    22    23   ar
    29     7     8   ar
    30     9    11    2
    31    16    17    1
    32    12    13    1
@<TRIPOS>MOLECULE
MolPort-035-706-979 CSSS03437789234 MCULE-2375191643 PubChem-91938304
 30 32 0 0 0
SMALL
GASTEIGER

@<TRIPOS>ATOM
      1 C          12.5995   42.6357    7.8691 C.3     1  UNL1        0.2880
      2 C          12.1719   43.5459    9.0117 C.3     1  UNL1        0.0650
      3 C          13.4669   40.3103    8.2835 C.ar    1  UNL1        0.1542
      4 C          14.5024   39.5085    8.7724 C.ar    1  UNL1        0.0529
      5 C          14.4322   38.1150    8.6665 C.ar    1  UNL1        0.0537
      6 C          13.3082   37.5281    8.0647 C.ar    1  UNL1        0.0162
      7 C          12.2697   38.3262    7.5771 C.ar    1  UNL1        0.0190
      8 C          12.3506   39.7162    7.6868 C.ar    1  UNL1        0.0850
      9 C          11.3705   41.9584    7.2962 C.2     1  UNL1        0.2732
     10 O          13.5544   41.7019    8.3985 O.3     1  UNL1       -0.4618
     11 O          10.4057   42.6520    6.8755 O.2     1  UNL1       -0.2704
     12 N          11.2933   40.5360    7.2038 N.am    1  UNL1       -0.2783
     13 H          10.4986   40.1174    6.8008 H       1  UNL1        0.1551
     14 C          16.6013   37.7850   10.0031 C.2     1  UNL1        0.2524
     15 O          16.6666   38.9966   10.3487 O.2     1  UNL1       -0.2697
     16 N          15.5173   37.3301    9.1793 N.am    1  UNL1       -0.2802
     17 H          15.5189   36.3750    8.9404 H       1  UNL1        0.1552
     18 C          17.6555   36.8434   10.4578 C.ar    1  UNL1        0.0876
     19 C          17.6357   36.4205   11.7975 C.ar    1  UNL1        0.0076
     20 C          18.5974   35.5366   12.2882 C.ar    1  UNL1        0.0003
     21 C          19.5982   35.0595   11.4444 C.ar    1  UNL1        0.0031
     22 C          19.6361   35.4667   10.1109 C.ar    1  UNL1        0.0371
     23 C          18.6743   36.3567    9.6014 C.ar    1  UNL1        0.1430
     24 C          17.8538   36.2398    7.2637 C.3     1  UNL1        0.2525
     25 O          18.7266   36.7554    8.2601 O.3     1  UNL1       -0.4713
     26 C          13.2640   43.4453    6.7888 C.2     1  UNL1        0.3623
     27 O          13.2775   44.7065    6.8566 O.2     1  UNL1       -0.2457
     28 O          13.8049   42.7937    5.6751 O.3     1  UNL1       -0.4458
     29 C          15.7357   44.2220    5.9263 C.3     1  UNL1        0.0513
     30 C          15.0151   43.2103    5.0541 C.3     1  UNL1        0.2087
@<TRIPOS>BOND
     1    29    30    1
     2    30    28    1
     3    26    28    1
     4     1    26    1
     5     1     2    1
     6     1    10    1
     7     1     9    1
     8     3    10    1
     9     4     5   ar
    10     5    16    1
    11    14    18    1
    12    19    20   ar
    13    21    22   ar
    14    23    25    1
    15    23    18   ar
    16    24    25    1
    17     6     7   ar
    18     8    12    1
    19     8     3   ar
    20    16    14   am
    21    12     9   am
    22    26    27    2
    23     3     4   ar
    24     5     6   ar
    25    14    15    2
    26    18    19   ar
    27    20    21   ar
    28    22    23   ar
    29     7     8   ar
    30     9    11    2
    31    16    17    1
    32    12    13    1
@<TRIPOS>MOLECULE
MolPort-035-706-979 CSSS03437789234 MCULE-2375191643 PubChem-91938304
 30 32 0 0 0
SMALL
GASTEIGER

@<TRIPOS>ATOM
      1 C           3.8303   42.2620   10.4356 C.3     1  UNL1        0.2880
      2 C           4.0335   43.1515    9.2173 C.3     1  UNL1        0.0650
      3 C           2.2561   42.9004   12.2921 C.ar    1  UNL1        0.1542
      4 C           1.9881   43.7485   13.3705 C.ar    1  UNL1        0.0529
      5 C           0.8464   43.5583   14.1569 C.ar    1  UNL1        0.0537
      6 C          -0.0306   42.5061   13.8508 C.ar    1  UNL1        0.0162
      7 C           0.2326   41.6576   12.7718 C.ar    1  UNL1        0.0190
      8 C           1.3758   41.8557   11.9942 C.ar    1  UNL1        0.0850
      9 C           2.8183   41.1866   10.0937 C.2     1  UNL1        0.2732
     10 O           3.4023   43.1060   11.5167 O.3     1  UNL1       -0.4618
     11 O           3.0147   40.4253    9.1084 O.2     1  UNL1       -0.2704
     12 N           1.6459   41.0043   10.8872 N.am    1  UNL1       -0.2783
     13 H           1.0164   40.2805   10.6655 H       1  UNL1        0.1551
     14 C           0.3270   44.0920   16.6158 C.2     1  UNL1        0.2524
     15 O           0.2631   42.8768   16.9489 O.2     1  UNL1       -0.2697
     16 N           0.6105   44.4501   15.2549 N.am    1  UNL1       -0.2802
     17 H           0.6469   45.4131   15.0533 H       1  UNL1        0.1552
     18 C           0.1056   45.1387   17.6454 C.ar    1  UNL1        0.0876
     19 C           1.0347   45.2462   18.6938 C.ar    1  UNL1        0.0076
     20 C           0.8849   46.2084   19.6932 C.ar    1  UNL1        0.0003
     21 C          -0.2002   47.0817   19.6605 C.ar    1  UNL1        0.0031
     22 C          -1.1341   46.9920   18.6284 C.ar    1  UNL1        0.0371
     23 C          -0.9971   46.0282   17.6141 C.ar    1  UNL1        0.1430
     24 C          -2.4496   44.7200   16.0874 C.3     1  UNL1        0.2525
     25 O          -1.9437   45.9516   16.5850 O.3     1  UNL1       -0.4713
     26 C           5.1312   41.6100   10.8182 C.2     1  UNL1        0.3623
     27 O           5.5273   41.6365   12.0174 O.2     1  UNL1       -0.2457
     28 O           5.9311   41.0355    9.8246 O.3     1  UNL1       -0.4458
     29 C           7.8500   42.0920   10.8409 C.3     1  UNL1        0.0513
     30 C           7.3514   41.0091    9.9015 C.3     1  UNL1        0.2087
@<TRIPOS>BOND
     1    29    30    1
     2    30    28    1
     3    26    28    1
     4     1    26    1
     5     1     2    1
     6     1    10    1
     7     1     9    1
     8     3    10    1
     9     4     5   ar
    10     5    16    1
    11    14    18    1
    12    19    20   ar
    13    21    22   ar
    14    23    25    1
    15    23    18   ar
    16    24    25    1
    17     6     7   ar
    18     8    12    1
    19     8     3   ar
    20    16    14   am
    21    12     9   am
    22    26    27    2
    23     3     4   ar
    24     5     6   ar
    25    14    15    2
    26    18    19   ar
    27    20    21   ar
    28    22    23   ar
    29     7     8   ar
    30     9    11    2
    31    16    17    1
    32    12    13    1
@<TRIPOS>MOLECULE
MolPort-035-706-979 CSSS03437789234 MCULE-2375191643 PubChem-91938304
 30 32 0 0 0
SMALL
GASTEIGER

@<TRIPOS>ATOM
      1 C           7.7994   42.7017    9.3566 C.3     1  UNL1        0.2880
      2 C           7.3127   44.0372    9.9010 C.3     1  UNL1        0.0650
      3 C          10.2219   42.0304    9.4694 C.ar    1  UNL1        0.1542
      4 C          11.5243   42.2348    9.0044 C.ar    1  UNL1        0.0529
      5 C          12.5721   41.4190    9.4455 C.ar    1  UNL1        0.0537
      6 C          12.3027   40.3918   10.3632 C.ar    1  UNL1        0.0162
      7 C          11.0024   40.1860   10.8324 C.ar    1  UNL1        0.0190
      8 C           9.9638   41.0053   10.3845 C.ar    1  UNL1        0.0850
      9 C           7.5662   41.6313   10.4041 C.2     1  UNL1        0.2732
     10 O           9.1870   42.8563    9.0175 O.3     1  UNL1       -0.4618
     11 O           6.4091   41.4426   10.8672 O.2     1  UNL1       -0.2704
     12 N           8.6392   40.8107   10.8653 N.am    1  UNL1       -0.2783
     13 H           8.4604   40.1013   11.5241 H       1  UNL1        0.1551
     14 C          14.2803   42.6391    7.9642 C.2     1  UNL1        0.2524
     15 O          13.4127   43.3983    7.4516 O.2     1  UNL1       -0.2697
     16 N          13.8926   41.6620    8.9418 N.am    1  UNL1       -0.2802
     17 H          14.6118   41.0970    9.3062 H       1  UNL1        0.1552
     18 C          15.6982   42.7704    7.5436 C.ar    1  UNL1        0.0876
     19 C          16.6724   42.0549    8.2597 C.ar    1  UNL1        0.0076
     20 C          18.0224   42.1345    7.9158 C.ar    1  UNL1        0.0003
     21 C          18.4216   42.9336    6.8466 C.ar    1  UNL1        0.0031
     22 C          17.4705   43.6522    6.1225 C.ar    1  UNL1        0.0371
     23 C          16.1065   43.5824    6.4564 C.ar    1  UNL1        0.1430
     24 C          14.7163   43.9145    4.4294 C.3     1  UNL1        0.2525
     25 O          15.1645   44.3101    5.7190 O.3     1  UNL1       -0.4713
     26 C           7.0348   42.3457    8.1105 C.2     1  UNL1        0.3623
     27 O           7.2606   41.2543    7.5159 O.2     1  UNL1       -0.2457
     28 O           6.1229   43.2629    7.5773 O.3     1  UNL1       -0.4458
     29 C           4.2061   42.3811    8.7517 C.3     1  UNL1        0.0513
     30 C           4.9166   43.6212    8.2408 C.3     1  UNL1        0.2087
@<TRIPOS>BOND
     1    29    30    1
     2    30    28    1
     3    26    28    1
     4     1    26    1
     5     1     2    1
     6     1    10    1
     7     1     9    1
     8     3    10    1
     9     4     5   ar
    10     5    16    1
    11    14    18    1
    12    19    20   ar
    13    21    22   ar
    14    23    25    1
    15    23    18   ar
    16    24    25    1
    17     6     7   ar
    18     8    12    1
    19     8     3   ar
    20    16    14   am
    21    12     9   am
    22    26    27    2
    23     3     4   ar
    24     5     6   ar
    25    14    15    2
    26    18    19   ar
    27    20    21   ar
    28    22    23   ar
    29     7     8   ar
    30     9    11    2
    31    16    17    1
    32    12    13    1
@<TRIPOS>MOLECULE
MolPort-035-706-979 CSSS03437789234 MCULE-2375191643 PubChem-91938304
 30 32 0 0 0
SMALL
GASTEIGER

@<TRIPOS>ATOM
      1 C          10.2840   40.1951    5.3214 C.3     1  UNL1        0.2880
      2 C          10.5865   40.9966    4.0632 C.3     1  UNL1        0.0650
      3 C          11.7945   40.2692    7.3326 C.ar    1  UNL1        0.1542
      4 C          13.0260   39.9210    7.8949 C.ar    1  UNL1        0.0529
      5 C          13.3057   40.2199    9.2330 C.ar    1  UNL1        0.0537
      6 C          12.3359   40.8761   10.0070 C.ar    1  UNL1        0.0162
      7 C          11.1045   41.2282    9.4476 C.ar    1  UNL1        0.0190
      8 C          10.8353   40.9239    8.1113 C.ar    1  UNL1        0.0850
      9 C           9.2957   40.9700    6.1701 C.2     1  UNL1        0.2732
     10 O          11.5327   39.9625    5.9929 O.3     1  UNL1       -0.4618
     11 O           8.1889   41.3265    5.6834 O.2     1  UNL1       -0.2704
     12 N           9.5892   41.2886    7.5302 N.am    1  UNL1       -0.2783
     13 H           8.9210   41.7665    8.0728 H       1  UNL1        0.1551
     14 C          15.3904   38.7253    9.3765 C.2     1  UNL1        0.2524
     15 O          14.9944   37.9490    8.4642 O.2     1  UNL1       -0.2697
     16 N          14.5807   39.8432    9.7705 N.am    1  UNL1       -0.2802
     17 H          14.9399   40.4136   10.4880 H       1  UNL1        0.1552
     18 C          16.6972   38.4665   10.0322 C.ar    1  UNL1        0.0876
     19 C          17.7760   39.3106    9.7195 C.ar    1  UNL1        0.0076
     20 C          19.0303   39.1218   10.3009 C.ar    1  UNL1        0.0003
     21 C          19.2271   38.0823   11.2075 C.ar    1  UNL1        0.0031
     22 C          18.1695   37.2329   11.5318 C.ar    1  UNL1        0.0371
     23 C          16.8997   37.4101   10.9547 C.ar    1  UNL1        0.1430
     24 C          14.5908   37.0091   11.7671 C.3     1  UNL1        0.2525
     25 O          15.8485   36.5483   11.2912 O.3     1  UNL1       -0.4713
     26 C           9.6802   38.8674    4.9518 C.2     1  UNL1        0.3623
     27 O           8.7728   38.3597    5.6690 O.2     1  UNL1       -0.2457
     28 O          10.1798   38.1679    3.8479 O.3     1  UNL1       -0.4458
     29 C          10.5611   35.8280    3.3890 C.3     1  UNL1        0.0513
     30 C           9.5736   36.9800    3.3525 C.3     1  UNL1        0.2087
@<TRIPOS>BOND
     1    29    30    1
     2    30    28    1
     3    26    28    1
     4     1    26    1
     5     1     2    1
     6     1    10    1
     7     1     9    1
     8     3    10    1
     9     4     5   ar
    10     5    16    1
    11    14    18    1
    12    19    20   ar
    13    21    22   ar
    14    23    25    1
    15    23    18   ar
    16    24    25    1
    17     6     7   ar
    18     8    12    1
    19     8     3   ar
    20    16    14   am
    21    12     9   am
    22    26    27    2
    23     3     4   ar
    24     5     6   ar
    25    14    15    2
    26    18    19   ar
    27    20    21   ar
    28    22    23   ar
    29     7     8   ar
    30     9    11    2
    31    16    17    1
    32    12    13    1
@<TRIPOS>MOLECULE
MolPort-035-706-979 CSSS03437789234 MCULE-2375191643 PubChem-91938304
 30 32 0 0 0
SMALL
GASTEIGER

@<TRIPOS>ATOM
      1 C           7.0346   42.1429    9.0381 C.3     1  UNL1        0.2880
      2 C           6.4866   41.8579   10.4293 C.3     1  UNL1        0.0650
      3 C           9.4224   41.6360    8.4270 C.ar    1  UNL1        0.1542
      4 C          10.7731   41.9598    8.5840 C.ar    1  UNL1        0.0529
      5 C          11.7556   41.2808    7.8547 C.ar    1  UNL1        0.0537
      6 C          11.3711   40.2675    6.9629 C.ar    1  UNL1        0.0162
      7 C          10.0218   39.9391    6.8052 C.ar    1  UNL1        0.0190
      8 C           9.0493   40.6241    7.5371 C.ar    1  UNL1        0.0850
      9 C           6.6696   40.9915    8.1225 C.2     1  UNL1        0.2732
     10 O           8.4540   42.3254    9.1648 O.3     1  UNL1       -0.4618
     11 O           5.4631   40.6537    7.9830 O.2     1  UNL1       -0.2704
     12 N           7.6745   40.2890    7.3916 N.am    1  UNL1       -0.2783
     13 H           7.4130   39.5637    6.7794 H       1  UNL1        0.1551
     14 C          13.9879   42.3068    7.1030 C.2     1  UNL1        0.2524
     15 O          13.5482   42.6280    5.9649 O.2     1  UNL1       -0.2697
     16 N          13.1293   41.6459    8.0447 N.am    1  UNL1       -0.2802
     17 H          13.5271   41.4184    8.9161 H       1  UNL1        0.1552
     18 C          15.3969   42.6201    7.4509 C.ar    1  UNL1        0.0876
     19 C          15.9827   43.7640    6.8833 C.ar    1  UNL1        0.0076
     20 C          17.3027   44.1146    7.1692 C.ar    1  UNL1        0.0003
     21 C          18.0610   43.3244    8.0304 C.ar    1  UNL1        0.0031
     22 C          17.4986   42.1846    8.6047 C.ar    1  UNL1        0.0371
     23 C          16.1701   41.8180    8.3267 C.ar    1  UNL1        0.1430
     24 C          16.3225   39.8680    9.8518 C.3     1  UNL1        0.2525
     25 O          15.6206   40.6706    8.9118 O.3     1  UNL1       -0.4713
     26 C           6.4312   43.4112    8.4984 C.2     1  UNL1        0.3623
     27 O           6.9575   43.9952    7.5096 O.2     1  UNL1       -0.2457
     28 O           5.3250   43.9754    9.1429 O.3     1  UNL1       -0.4458
     29 C           3.6980   44.9902    7.6752 C.3     1  UNL1        0.0513
     30 C           3.9998   43.8575    8.6393 C.3     1  UNL1        0.2087
@<TRIPOS>BOND
     1    29    30    1
     2    30    28    1
     3    26    28    1
     4     1    26    1
     5     1     2    1
     6     1    10    1
     7     1     9    1
     8     3    10    1
     9     4     5   ar
    10     5    16    1
    11    14    18    1
    12    19    20   ar
    13    21    22   ar
    14    23    25    1
    15    23    18   ar
    16    24    25    1
    17     6     7   ar
    18     8    12    1
    19     8     3   ar
    20    16    14   am
    21    12     9   am
    22    26    27    2
    23     3     4   ar
    24     5     6   ar
    25    14    15    2
    26    18    19   ar
    27    20    21   ar
    28    22    23   ar
    29     7     8   ar
    30     9    11    2
    31    16    17    1
    32    12    13    1
@<TRIPOS>MOLECULE
MolPort-035-706-979 CSSS03437789234 MCULE-2375191643 PubChem-91938304
 30 32 0 0 0
SMALL
GASTEIGER

@<TRIPOS>ATOM
      1 C           7.2759   42.5377    9.8646 C.3     1  UNL1        0.2880
      2 C           6.6912   43.7014   10.6526 C.3     1  UNL1        0.0650
      3 C           9.7591   42.1642    9.7031 C.ar    1  UNL1        0.1542
      4 C          10.9855   42.5989    9.1920 C.ar    1  UNL1        0.0529
      5 C          12.1522   41.8614    9.4218 C.ar    1  UNL1        0.0537
      6 C          12.0798   40.6786   10.1740 C.ar    1  UNL1        0.0162
      7 C          10.8560   40.2422   10.6890 C.ar    1  UNL1        0.0190
      8 C           9.6973   40.9853   10.4525 C.ar    1  UNL1        0.0850
      9 C           7.2553   41.2971   10.7351 C.2     1  UNL1        0.2732
     10 O           8.6030   42.9147    9.4635 O.3     1  UNL1       -0.4618
     11 O           6.1708   40.8962   11.2373 O.2     1  UNL1       -0.2704
     12 N           8.4493   40.5549   10.9822 N.am    1  UNL1       -0.2783
     13 H           8.4085   39.7352   11.5259 H       1  UNL1        0.1551
     14 C          13.8140   42.2811    7.5079 C.2     1  UNL1        0.2524
     15 O          13.0653   41.7589    6.6369 O.2     1  UNL1       -0.2697
     16 N          13.3888   42.3422    8.8776 N.am    1  UNL1       -0.2802
     17 H          14.0146   42.7596    9.5128 H       1  UNL1        0.1552
     18 C          15.1322   42.8275    7.0976 C.ar    1  UNL1        0.0876
     19 C          15.1540   44.0063    6.3335 C.ar    1  UNL1        0.0076
     20 C          16.3594   44.5717    5.9158 C.ar    1  UNL1        0.0003
     21 C          17.5667   43.9655    6.2564 C.ar    1  UNL1        0.0031
     22 C          17.5674   42.7947    7.0144 C.ar    1  UNL1        0.0371
     23 C          16.3614   42.2128    7.4430 C.ar    1  UNL1        0.1430
     24 C          16.1184   41.0136    9.6005 C.3     1  UNL1        0.2525
     25 O          16.3798   41.0371    8.2035 O.3     1  UNL1       -0.4713
     26 C           6.4517   42.2872    8.6310 C.2     1  UNL1        0.3623
     27 O           6.9391   41.6412    7.6610 O.2     1  UNL1       -0.2457
     28 O           5.1675   42.8344    8.5388 O.3     1  UNL1       -0.4458
     29 C           6.0092   44.9212    7.6626 C.3     1  UNL1        0.0513
     30 C           4.8590   43.9312    7.6869 C.3     1  UNL1        0.2087
@<TRIPOS>BOND
     1    29    30    1
     2    30    28    1
     3    26    28    1
     4     1    26    1
     5     1     2    1
     6     1    10    1
     7     1     9    1
     8     3    10    1
     9     4     5   ar
    10     5    16    1
    11    14    18    1
    12    19    20   ar
    13    21    22   ar
    14    23    25    1
    15    23    18   ar
    16    24    25    1
    17     6     7   ar
    18     8    12    1
    19     8     3   ar
    20    16    14   am
    21    12     9   am
    22    26    27    2
    23     3     4   ar
    24     5     6   ar
    25    14    15    2
    26    18    19   ar
    27    20    21   ar
    28    22    23   ar
    29     7     8   ar
    30     9    11    2
    31    16    17    1
    32    12    13    1
@<TRIPOS>MOLECULE
MolPort-035-706-979 CSSS03437789234 MCULE-2375191643 PubChem-91938304
 30 32 0 0 0
SMALL
GASTEIGER

@<TRIPOS>ATOM
      1 C           7.3499   41.6529    8.1465 C.3     1  UNL1        0.2880
      2 C           6.7389   41.2612    9.4844 C.3     1  UNL1        0.0650
      3 C           9.7776   41.2403    7.6290 C.ar    1  UNL1        0.1542
      4 C          11.1102   41.5812    7.8784 C.ar    1  UNL1        0.0529
      5 C          12.1452   40.9751    7.1577 C.ar    1  UNL1        0.0537
      6 C          11.8320   40.0176    6.1804 C.ar    1  UNL1        0.0162
      7 C          10.5011   39.6722    5.9300 C.ar    1  UNL1        0.0190
      8 C           9.4758   40.2843    6.6544 C.ar    1  UNL1        0.0850
      9 C           7.0609   40.5597    7.1371 C.2     1  UNL1        0.2732
     10 O           8.7561   41.8565    8.3598 O.3     1  UNL1       -0.4618
     11 O           5.8719   40.2067    6.9119 O.2     1  UNL1       -0.2704
     12 N           8.1190   39.9307    6.4144 N.am    1  UNL1       -0.2783
     13 H           7.9072   39.2439    5.7417 H       1  UNL1        0.1551
     14 C          14.2412   42.4276    6.8449 C.2     1  UNL1        0.2524
     15 O          13.7046   43.1521    5.9623 O.2     1  UNL1       -0.2697
     16 N          13.4979   41.3555    7.4439 N.am    1  UNL1       -0.2802
     17 H          13.9682   40.8232    8.1257 H       1  UNL1        0.1552
     18 C          15.6434   42.6984    7.2514 C.ar    1  UNL1        0.0876
     19 C          16.1258   42.0874    8.4209 C.ar    1  UNL1        0.0076
     20 C          17.4337   42.3003    8.8580 C.ar    1  UNL1        0.0003
     21 C          18.2835   43.1306    8.1303 C.ar    1  UNL1        0.0031
     22 C          17.8245   43.7470    6.9663 C.ar    1  UNL1        0.0371
     23 C          16.5095   43.5424    6.5128 C.ar    1  UNL1        0.1430
     24 C          15.1419   45.2499    5.3442 C.3     1  UNL1        0.2525
     25 O          16.0646   44.1687    5.3420 O.3     1  UNL1       -0.4713
     26 C           6.7435   42.9422    7.6628 C.2     1  UNL1        0.3623
     27 O           6.7728   43.2374    6.4349 O.2     1  UNL1       -0.2457
     28 O           6.2098   43.8424    8.5913 O.3     1  UNL1       -0.4458
     29 C           4.1397   44.9510    8.0284 C.3     1  UNL1        0.0513
     30 C           4.8204   43.9038    8.8907 C.3     1  UNL1        0.2087
@<TRIPOS>BOND
     1    29    30    1
     2    30    28    1
     3    26    28    1
     4     1    26    1
     5     1     2    1
     6     1    10    1
     7     1     9    1
     8     3    10    1
     9     4     5   ar
    10     5    16    1
    11    14    18    1
    12    19    20   ar
    13    21    22   ar
    14    23    25    1
    15    23    18   ar
    16    24    25    1
    17     6     7   ar
    18     8    12    1
    19     8     3   ar
    20    16    14   am
    21    12     9   am
    22    26    27    2
    23     3     4   ar
    24     5     6   ar
    25    14    15    2
    26    18    19   ar
    27    20    21   ar
    28    22    23   ar
    29     7     8   ar
    30     9    11    2
    31    16    17    1
    32    12    13    1
@<TRIPOS>MOLECULE
MolPort-035-706-979 CSSS03437789234 MCULE-2375191643 PubChem-91938304
 30 32 0 0 0
SMALL
GASTEIGER

@<TRIPOS>ATOM
      1 C          15.3207   38.8279   10.5009 C.3     1  UNL1        0.2880
      2 C          15.9159   38.9822   11.8933 C.3     1  UNL1        0.0650
      3 C          13.1110   39.8619    9.8846 C.ar    1  UNL1        0.1542
      4 C          11.7216   39.8525   10.0386 C.ar    1  UNL1        0.0529
      5 C          10.9199   40.7359    9.3072 C.ar    1  UNL1        0.0537
      6 C          11.5258   41.6353    8.4162 C.ar    1  UNL1        0.0162
      7 C          12.9147   41.6496    8.2614 C.ar    1  UNL1        0.0190
      8 C          13.7053   40.7626    8.9955 C.ar    1  UNL1        0.0850
      9 C          15.9388   39.8663    9.5861 C.2     1  UNL1        0.2732
     10 O          13.8965   38.9716   10.6246 O.3     1  UNL1       -0.4618
     11 O          17.1907   39.9221    9.4492 O.2     1  UNL1       -0.2704
     12 N          15.1206   40.7777    8.8530 N.am    1  UNL1       -0.2783
     13 H          15.5408   41.4246    8.2414 H       1  UNL1        0.1551
     14 C           8.6210   41.8030    9.7279 C.2     1  UNL1        0.2524
     15 O           9.0870   42.9739    9.7880 O.2     1  UNL1       -0.2697
     16 N           9.4988   40.6914    9.4942 N.am    1  UNL1       -0.2802
     17 H           9.0795   39.8014    9.4584 H       1  UNL1        0.1552
     18 C           7.1614   41.5935    9.9018 C.ar    1  UNL1        0.0876
     19 C           6.3838   41.3526    8.7566 C.ar    1  UNL1        0.0076
     20 C           5.0068   41.1477    8.8510 C.ar    1  UNL1        0.0003
     21 C           4.3827   41.1804   10.0962 C.ar    1  UNL1        0.0031
     22 C           5.1362   41.4179   11.2456 C.ar    1  UNL1        0.0371
     23 C           6.5245   41.6261   11.1672 C.ar    1  UNL1        0.1430
     24 C           8.3256   41.0182   12.7604 C.3     1  UNL1        0.2525
     25 O           7.2663   41.8632   12.3310 O.3     1  UNL1       -0.4713
     26 C          15.6224   37.4556    9.9626 C.2     1  UNL1        0.3623
     27 O          15.3640   36.4304   10.6539 O.2     1  UNL1       -0.2457
     28 O          16.2545   37.3273    8.7211 O.3     1  UNL1       -0.4458
     29 C          15.8876   35.5209    7.1612 C.3     1  UNL1        0.0513
     30 C          16.7782   36.0915    8.2497 C.3     1  UNL1        0.2087
@<TRIPOS>BOND
     1    29    30    1
     2    30    28    1
     3    26    28    1
     4     1    26    1
     5     1     2    1
     6     1    10    1
     7     1     9    1
     8     3    10    1
     9     4     5   ar
    10     5    16    1
    11    14    18    1
    12    19    20   ar
    13    21    22   ar
    14    23    25    1
    15    23    18   ar
    16    24    25    1
    17     6     7   ar
    18     8    12    1
    19     8     3   ar
    20    16    14   am
    21    12     9   am
    22    26    27    2
    23     3     4   ar
    24     5     6   ar
    25    14    15    2
    26    18    19   ar
    27    20    21   ar
    28    22    23   ar
    29     7     8   ar
    30     9    11    2
    31    16    17    1
    32    12    13    1
@<TRIPOS>MOLECULE
MolPort-035-706-979 CSSS03437789234 MCULE-2375191643 PubChem-91938304
 30 32 0 0 0
SMALL
GASTEIGER

@<TRIPOS>ATOM
      1 C          14.5123   38.6050   10.4997 C.3     1  UNL1        0.2880
      2 C          15.2290   38.5817   11.8423 C.3     1  UNL1        0.0650
      3 C          12.5449   40.1155   10.0761 C.ar    1  UNL1        0.1542
      4 C          11.2030   40.4050   10.3402 C.ar    1  UNL1        0.0529
      5 C          10.5633   41.4647    9.6876 C.ar    1  UNL1        0.0537
      6 C          11.2842   42.2376    8.7641 C.ar    1  UNL1        0.0162
      7 C          12.6267   41.9530    8.4994 C.ar    1  UNL1        0.0190
      8 C          13.2551   40.8922    9.1555 C.ar    1  UNL1        0.0850
      9 C          15.2740   39.5115    9.5535 C.2     1  UNL1        0.2732
     10 O          13.1680   39.0523   10.7384 O.3     1  UNL1       -0.4618
     11 O          16.4936   39.2968    9.3182 O.2     1  UNL1       -0.2704
     12 N          14.6242   40.6022    8.9010 N.am    1  UNL1       -0.2783
     13 H          15.1298   41.1606    8.2671 H       1  UNL1        0.1551
     14 C           8.0392   41.2826    9.2443 C.2     1  UNL1        0.2524
     15 O           8.1915   40.5844    8.2046 O.2     1  UNL1       -0.2697
     16 N           9.1853   41.7258    9.9865 N.am    1  UNL1       -0.2802
     17 H           9.0056   42.2683   10.7882 H       1  UNL1        0.1552
     18 C           6.6664   41.6369    9.6853 C.ar    1  UNL1        0.0876
     19 C           5.7712   42.1435    8.7283 C.ar    1  UNL1        0.0076
     20 C           4.4668   42.4955    9.0773 C.ar    1  UNL1        0.0003
     21 C           4.0348   42.3462   10.3934 C.ar    1  UNL1        0.0031
     22 C           4.9076   41.8450   11.3591 C.ar    1  UNL1        0.0371
     23 C           6.2247   41.4857   11.0233 C.ar    1  UNL1        0.1430
     24 C           7.9434   41.8121   12.7816 C.3     1  UNL1        0.2525
     25 O           7.0881   40.9839   12.0050 O.3     1  UNL1       -0.4713
     26 C          14.4634   37.2176    9.9195 C.2     1  UNL1        0.3623
     27 O          14.7487   37.0262    8.7039 O.2     1  UNL1       -0.2457
     28 O          14.0326   36.1527   10.7181 O.3     1  UNL1       -0.4458
     29 C          11.6446   35.8079   10.8152 C.3     1  UNL1        0.0513
     30 C          12.9809   35.2772   10.3293 C.3     1  UNL1        0.2087
@<TRIPOS>BOND
     1    29    30    1
     2    30    28    1
     3    26    28    1
     4     1    26    1
     5     1     2    1
     6     1    10    1
     7     1     9    1
     8     3    10    1
     9     4     5   ar
    10     5    16    1
    11    14    18    1
    12    19    20   ar
    13    21    22   ar
    14    23    25    1
    15    23    18   ar
    16    24    25    1
    17     6     7   ar
    18     8    12    1
    19     8     3   ar
    20    16    14   am
    21    12     9   am
    22    26    27    2
    23     3     4   ar
    24     5     6   ar
    25    14    15    2
    26    18    19   ar
    27    20    21   ar
    28    22    23   ar
    29     7     8   ar
    30     9    11    2
    31    16    17    1
    32    12    13    1
