@<TRIPOS>MOLECULE
Molport-016-721-723 19664757 MCULE-1483969681 PubChem-46978769 ZINC000019664757
 31 34 0 0 0
SMALL
GASTEIGER

@<TRIPOS>ATOM
      1 C           7.9764   41.5891   11.1412 C.2     1  UNL1        0.2521
      2 O           7.9313   41.8734   12.3692 O.2     1  UNL1       -0.2697
      3 N           6.7669   41.2871   10.4344 N.am    1  UNL1       -0.2592
      4 H           6.8484   41.0289    9.4879 H       1  UNL1        0.1571
      5 C          13.0619   41.2696    8.6188 C.ar    1  UNL1        0.1562
      6 C          14.0833   40.5348    9.2451 C.ar    1  UNL1        0.0385
      7 C          13.8543   39.9008   10.4703 C.ar    1  UNL1        0.0032
      8 C          12.6035   39.9941   11.0846 C.ar    1  UNL1        0.0017
      9 C          11.5804   40.7207   10.4718 C.ar    1  UNL1        0.0208
     10 C          10.3273   40.8176   11.0696 C.ar    1  UNL1        0.0073
     11 C           9.2926   41.5373   10.4557 C.ar    1  UNL1        0.0673
     12 C           9.5637   42.1726    9.2171 C.ar    1  UNL1        0.0638
     13 C           8.5512   43.0022    8.5030 C.3     1  UNL1        0.0522
     14 C          11.8046   41.3597    9.2366 C.ar    1  UNL1        0.1147
     15 N          10.7979   42.0633    8.6541 N.ar    1  UNL1       -0.2465
     16 C          14.5255   42.4824    7.0320 C.3     1  UNL1        0.2525
     17 O          13.2757   41.9110    7.3931 O.3     1  UNL1       -0.4699
     18 C           5.4507   41.3306   10.9930 C.ar    1  UNL1        0.1880
     19 C           3.1955   41.7793   11.6438 C.ar    1  UNL1        0.1143
     20 N           5.0017   40.4924   11.9531 N.ar    1  UNL1       -0.1256
     21 N           3.7463   40.7462   12.3182 N.ar    1  UNL1       -0.1440
     22 S           4.2821   42.4540   10.5462 S.2     1  UNL1       -0.0346
     23 C           1.8214   42.2953   11.9021 C.3     1  UNL1        0.0808
     24 C           1.4182   42.0602   13.3525 C.3     1  UNL1        0.1340
     25 C          -0.4240   44.8695   14.4910 C.ar    1  UNL1        0.0801
     26 C          -0.5076   46.2731   14.9726 C.3     1  UNL1        0.0540
     27 C          -1.5091   44.0238   14.3142 C.ar    1  UNL1        0.0308
     28 C          -0.9080   42.8645   13.8618 C.ar    1  UNL1        0.0571
     29 C          -1.6285   41.6063   13.5179 C.3     1  UNL1        0.0517
     30 N           0.4253   43.0373   13.7836 N.ar    1  UNL1       -0.2548
     31 N           0.7329   44.2607   14.1709 N.ar    1  UNL1       -0.1740
@<TRIPOS>BOND
     1    16    17    1
     2     5    17    1
     3     6     7   ar
     4     8     9   ar
     5    10    11   ar
     6    11     1    1
     7     1     3   am
     8    18    22   ar
     9    19    22   ar
    10    23    19    1
    11    23    24    1
    12    24    30    1
    13    25    27   ar
    14    26    25    1
    15    28    30   ar
    16    29    28    1
    17    12    15   ar
    18    13    12    1
    19    14     5   ar
    20    14     9   ar
    21     3    18    1
    22    20    21   ar
    23    30    31   ar
    24     5     6   ar
    25     7     8   ar
    26     9    10   ar
    27    11    12   ar
    28     1     2    2
    29    18    20   ar
    30    19    21   ar
    31    25    31   ar
    32    27    28   ar
    33    14    15   ar
    34     3     4    1
@<TRIPOS>MOLECULE
Molport-016-721-723 19664757 MCULE-1483969681 PubChem-46978769 ZINC000019664757
 31 34 0 0 0
SMALL
GASTEIGER

@<TRIPOS>ATOM
      1 C           9.0972   41.9519    9.9581 C.2     1  UNL1        0.2521
      2 O           9.9621   42.8654   10.0506 O.2     1  UNL1       -0.2697
      3 N           9.5065   40.5786    9.9739 N.am    1  UNL1       -0.2592
      4 H           8.8063   39.8965    9.8568 H       1  UNL1        0.1571
      5 C           3.6601   43.4323    9.2015 C.ar    1  UNL1        0.1562
      6 C           3.3478   44.3791    8.2107 C.ar    1  UNL1        0.0385
      7 C           4.3575   44.9518    7.4311 C.ar    1  UNL1        0.0032
      8 C           5.6905   44.5868    7.6324 C.ar    1  UNL1        0.0017
      9 C           6.0133   43.6467    8.6133 C.ar    1  UNL1        0.0208
     10 C           7.3367   43.2693    8.8213 C.ar    1  UNL1        0.0073
     11 C           7.6674   42.3191    9.7977 C.ar    1  UNL1        0.0673
     12 C           6.6178   41.7649   10.5737 C.ar    1  UNL1        0.0638
     13 C           6.8626   40.7839   11.6695 C.3     1  UNL1        0.0522
     14 C           5.0003   43.0649    9.4003 C.ar    1  UNL1        0.1147
     15 N           5.3320   42.1518   10.3510 N.ar    1  UNL1       -0.2465
     16 C           2.9382   42.1884   11.2171 C.3     1  UNL1        0.2525
     17 O           2.6611   42.8511    9.9911 O.3     1  UNL1       -0.4699
     18 C          10.8500   40.1187   10.1460 C.ar    1  UNL1        0.1880
     19 C          13.2093   39.8036   10.3578 C.ar    1  UNL1        0.1143
     20 N          11.1937   38.8282   10.3524 N.ar    1  UNL1       -0.1256
     21 N          12.5091   38.6531   10.4659 N.ar    1  UNL1       -0.1440
     22 S          12.1967   41.1240   10.0900 S.2     1  UNL1       -0.0346
     23 C          14.6976   39.8712   10.3975 C.3     1  UNL1        0.0808
     24 C          15.2825   39.7616    8.9948 C.3     1  UNL1        0.1340
     25 C          16.8902   42.8139    8.1693 C.ar    1  UNL1        0.0801
     26 C          18.0390   43.7531    8.2522 C.3     1  UNL1        0.0540
     27 C          15.7298   43.0394    7.4435 C.ar    1  UNL1        0.0308
     28 C          15.0005   41.8918    7.6906 C.ar    1  UNL1        0.0571
     29 C          13.6412   41.6097    7.1490 C.3     1  UNL1        0.0517
     30 N          15.6965   41.0687    8.4980 N.ar    1  UNL1       -0.2548
     31 N          16.8538   41.6258    8.8007 N.ar    1  UNL1       -0.1740
@<TRIPOS>BOND
     1    16    17    1
     2     5    17    1
     3     6     7   ar
     4     8     9   ar
     5    10    11   ar
     6    11     1    1
     7     1     3   am
     8    18    22   ar
     9    19    22   ar
    10    23    19    1
    11    23    24    1
    12    24    30    1
    13    25    27   ar
    14    26    25    1
    15    28    30   ar
    16    29    28    1
    17    12    15   ar
    18    13    12    1
    19    14     5   ar
    20    14     9   ar
    21     3    18    1
    22    20    21   ar
    23    30    31   ar
    24     5     6   ar
    25     7     8   ar
    26     9    10   ar
    27    11    12   ar
    28     1     2    2
    29    18    20   ar
    30    19    21   ar
    31    25    31   ar
    32    27    28   ar
    33    14    15   ar
    34     3     4    1
@<TRIPOS>MOLECULE
Molport-016-721-723 19664757 MCULE-1483969681 PubChem-46978769 ZINC000019664757
 31 34 0 0 0
SMALL
GASTEIGER

@<TRIPOS>ATOM
      1 C          11.4261   41.4172    7.1677 C.2     1  UNL1        0.2521
      2 O          11.0431   40.6386    6.2522 O.2     1  UNL1       -0.2697
      3 N          10.4631   42.1882    7.8971 N.am    1  UNL1       -0.2592
      4 H          10.8050   42.8153    8.5746 H       1  UNL1        0.1571
      5 C          16.9783   42.0751    8.2008 C.ar    1  UNL1        0.1562
      6 C          17.6236   43.2288    7.7233 C.ar    1  UNL1        0.0385
      7 C          16.9140   44.1929    7.0006 C.ar    1  UNL1        0.0032
      8 C          15.5523   44.0158    6.7454 C.ar    1  UNL1        0.0017
      9 C          14.8998   42.8740    7.2151 C.ar    1  UNL1        0.0208
     10 C          13.5421   42.6868    6.9731 C.ar    1  UNL1        0.0073
     11 C          12.8781   41.5478    7.4498 C.ar    1  UNL1        0.0673
     12 C          13.6316   40.5883    8.1728 C.ar    1  UNL1        0.0638
     13 C          13.0365   39.3197    8.6823 C.3     1  UNL1        0.0522
     14 C          15.6090   41.9004    7.9454 C.ar    1  UNL1        0.1147
     15 N          14.9585   40.7948    8.3949 N.ar    1  UNL1       -0.2465
     16 C          17.1289   40.4530   10.0654 C.3     1  UNL1        0.2525
     17 O          17.6749   41.1003    8.9244 O.3     1  UNL1       -0.4699
     18 C           9.0453   42.1202    7.7204 C.ar    1  UNL1        0.1880
     19 C           6.6608   42.1982    7.8581 C.ar    1  UNL1        0.1143
     20 N           8.4363   41.5885    6.6376 N.ar    1  UNL1       -0.1256
     21 N           7.1075   41.6285    6.7173 N.ar    1  UNL1       -0.1440
     22 S           7.9342   42.6738    8.8546 S.2     1  UNL1       -0.0346
     23 C           5.2179   42.3169    8.2118 C.3     1  UNL1        0.0808
     24 C           5.0269   43.2473    9.4032 C.3     1  UNL1        0.1340
     25 C           2.6071   42.1633   11.7595 C.ar    1  UNL1        0.0801
     26 C           1.2681   42.2545   12.3978 C.3     1  UNL1        0.0540
     27 C           3.5903   41.2468   12.1021 C.ar    1  UNL1        0.0308
     28 C           4.6137   41.5743   11.2329 C.ar    1  UNL1        0.0571
     29 C           5.9382   40.8938   11.1770 C.3     1  UNL1        0.0517
     30 N           4.2399   42.6030   10.4482 N.ar    1  UNL1       -0.2548
     31 N           3.0140   42.9744   10.7654 N.ar    1  UNL1       -0.1740
@<TRIPOS>BOND
     1    16    17    1
     2     5    17    1
     3     6     7   ar
     4     8     9   ar
     5    10    11   ar
     6    11     1    1
     7     1     3   am
     8    18    22   ar
     9    19    22   ar
    10    23    19    1
    11    23    24    1
    12    24    30    1
    13    25    27   ar
    14    26    25    1
    15    28    30   ar
    16    29    28    1
    17    12    15   ar
    18    13    12    1
    19    14     5   ar
    20    14     9   ar
    21     3    18    1
    22    20    21   ar
    23    30    31   ar
    24     5     6   ar
    25     7     8   ar
    26     9    10   ar
    27    11    12   ar
    28     1     2    2
    29    18    20   ar
    30    19    21   ar
    31    25    31   ar
    32    27    28   ar
    33    14    15   ar
    34     3     4    1
@<TRIPOS>MOLECULE
Molport-016-721-723 19664757 MCULE-1483969681 PubChem-46978769 ZINC000019664757
 31 34 0 0 0
SMALL
GASTEIGER

@<TRIPOS>ATOM
      1 C           9.1093   41.5424    8.8743 C.2     1  UNL1        0.2521
      2 O           9.6559   41.6792    7.7457 O.2     1  UNL1       -0.2697
      3 N           9.8695   41.0341    9.9776 N.am    1  UNL1       -0.2592
      4 H           9.3961   40.9021   10.8306 H       1  UNL1        0.1571
      5 C           3.6083   42.7681    9.6247 C.ar    1  UNL1        0.1562
      6 C           2.9362   42.2162   10.7289 C.ar    1  UNL1        0.0385
      7 C           3.6071   41.3747   11.6217 C.ar    1  UNL1        0.0032
      8 C           4.9562   41.0737   11.4217 C.ar    1  UNL1        0.0017
      9 C           5.6351   41.6165   10.3287 C.ar    1  UNL1        0.0208
     10 C           6.9808   41.3298   10.1200 C.ar    1  UNL1        0.0073
     11 C           7.6714   41.8786    9.0303 C.ar    1  UNL1        0.0673
     12 C           6.9566   42.7221    8.1422 C.ar    1  UNL1        0.0638
     13 C           7.5804   43.3189    6.9265 C.3     1  UNL1        0.0522
     14 C           4.9649   42.4665    9.4272 C.ar    1  UNL1        0.1147
     15 N           5.6406   42.9859    8.3682 N.ar    1  UNL1       -0.2465
     16 C           3.5494   44.7839    8.1879 C.3     1  UNL1        0.2525
     17 O           2.9504   43.6110    8.7213 O.3     1  UNL1       -0.4699
     18 C          11.2605   40.7030    9.9397 C.ar    1  UNL1        0.1880
     19 C          13.5400   40.2189    9.4101 C.ar    1  UNL1        0.1143
     20 N          11.9873   40.3384   11.0191 N.ar    1  UNL1       -0.1256
     21 N          13.2564   40.0645   10.7221 N.ar    1  UNL1       -0.1440
     22 S          12.1825   40.6979    8.5336 S.2     1  UNL1       -0.0346
     23 C          14.8740   39.9257    8.8137 C.3     1  UNL1        0.0808
     24 C          15.8583   41.0508    9.1085 C.3     1  UNL1        0.1340
     25 C          15.0352   43.2524    6.4519 C.ar    1  UNL1        0.0801
     26 C          14.1780   43.6633    5.3094 C.3     1  UNL1        0.0540
     27 C          16.1548   43.9417    6.8939 C.ar    1  UNL1        0.0308
     28 C          16.5796   43.1639    7.9543 C.ar    1  UNL1        0.0571
     29 C          17.7738   43.4489    8.7988 C.3     1  UNL1        0.0517
     30 N          15.7590   42.1072    8.1081 N.ar    1  UNL1       -0.2548
     31 N          14.8120   42.1494    7.1902 N.ar    1  UNL1       -0.1740
@<TRIPOS>BOND
     1    16    17    1
     2     5    17    1
     3     6     7   ar
     4     8     9   ar
     5    10    11   ar
     6    11     1    1
     7     1     3   am
     8    18    22   ar
     9    19    22   ar
    10    23    19    1
    11    23    24    1
    12    24    30    1
    13    25    27   ar
    14    26    25    1
    15    28    30   ar
    16    29    28    1
    17    12    15   ar
    18    13    12    1
    19    14     5   ar
    20    14     9   ar
    21     3    18    1
    22    20    21   ar
    23    30    31   ar
    24     5     6   ar
    25     7     8   ar
    26     9    10   ar
    27    11    12   ar
    28     1     2    2
    29    18    20   ar
    30    19    21   ar
    31    25    31   ar
    32    27    28   ar
    33    14    15   ar
    34     3     4    1
@<TRIPOS>MOLECULE
Molport-016-721-723 19664757 MCULE-1483969681 PubChem-46978769 ZINC000019664757
 31 34 0 0 0
SMALL
GASTEIGER

@<TRIPOS>ATOM
      1 C           9.5166   42.5313    9.8259 C.2     1  UNL1        0.2521
      2 O          10.2595   43.4759   10.2093 O.2     1  UNL1       -0.2697
      3 N          10.0872   41.2501    9.5316 N.am    1  UNL1       -0.2592
      4 H           9.4809   40.5514    9.1948 H       1  UNL1        0.1571
      5 C           3.9821   43.5562    9.0228 C.ar    1  UNL1        0.1562
      6 C           3.6037   44.5410    8.0941 C.ar    1  UNL1        0.0385
      7 C           4.5718   45.2607    7.3868 C.ar    1  UNL1        0.0032
      8 C           5.9286   45.0062    7.5994 C.ar    1  UNL1        0.0017
      9 C           6.3170   44.0297    8.5190 C.ar    1  UNL1        0.0208
     10 C           7.6651   43.7615    8.7370 C.ar    1  UNL1        0.0073
     11 C           8.0624   42.7760    9.6516 C.ar    1  UNL1        0.0673
     12 C           7.0529   42.0713   10.3555 C.ar    1  UNL1        0.0638
     13 C           7.3651   41.0384   11.3845 C.3     1  UNL1        0.0522
     14 C           5.3462   43.3001    9.2328 C.ar    1  UNL1        0.1147
     15 N           5.7416   42.3534   10.1246 N.ar    1  UNL1       -0.2465
     16 C           2.8912   41.4180    9.6302 C.3     1  UNL1        0.2525
     17 O           3.0252   42.8283    9.7397 O.3     1  UNL1       -0.4699
     18 C          11.4664   40.9043    9.6875 C.ar    1  UNL1        0.1880
     19 C          13.6186   40.0855   10.3263 C.ar    1  UNL1        0.1143
     20 N          12.4611   41.3591    8.8939 N.ar    1  UNL1       -0.1256
     21 N          13.6606   40.9057    9.2535 N.ar    1  UNL1       -0.1440
     22 S          12.0462   39.8975   10.9031 S.2     1  UNL1       -0.0346
     23 C          14.8297   39.4880   10.9568 C.3     1  UNL1        0.0808
     24 C          14.5060   38.1340   11.5760 C.3     1  UNL1        0.1340
     25 C          15.5248   35.7591    9.1460 C.ar    1  UNL1        0.0801
     26 C          16.5507   35.1495    8.2602 C.3     1  UNL1        0.0540
     27 C          14.2053   35.3416    9.2388 C.ar    1  UNL1        0.0308
     28 C          13.6865   36.2123   10.1784 C.ar    1  UNL1        0.0571
     29 C          12.2750   36.2125   10.6560 C.3     1  UNL1        0.0517
     30 N          14.6428   37.0645   10.5941 N.ar    1  UNL1       -0.2548
     31 N          15.7718   36.7984    9.9648 N.ar    1  UNL1       -0.1740
@<TRIPOS>BOND
     1    16    17    1
     2     5    17    1
     3     6     7   ar
     4     8     9   ar
     5    10    11   ar
     6    11     1    1
     7     1     3   am
     8    18    22   ar
     9    19    22   ar
    10    23    19    1
    11    23    24    1
    12    24    30    1
    13    25    27   ar
    14    26    25    1
    15    28    30   ar
    16    29    28    1
    17    12    15   ar
    18    13    12    1
    19    14     5   ar
    20    14     9   ar
    21     3    18    1
    22    20    21   ar
    23    30    31   ar
    24     5     6   ar
    25     7     8   ar
    26     9    10   ar
    27    11    12   ar
    28     1     2    2
    29    18    20   ar
    30    19    21   ar
    31    25    31   ar
    32    27    28   ar
    33    14    15   ar
    34     3     4    1
@<TRIPOS>MOLECULE
Molport-016-721-723 19664757 MCULE-1483969681 PubChem-46978769 ZINC000019664757
 31 34 0 0 0
SMALL
GASTEIGER

@<TRIPOS>ATOM
      1 C          12.1326   40.2926   10.0470 C.2     1  UNL1        0.2521
      2 O          11.7175   40.3837   11.2346 O.2     1  UNL1       -0.2697
      3 N          11.6442   41.1983    9.0496 N.am    1  UNL1       -0.2592
      4 H          11.9601   41.0679    8.1263 H       1  UNL1        0.1571
      5 C          15.7044   36.0770    8.7063 C.ar    1  UNL1        0.1562
      6 C          15.2713   34.7485    8.8586 C.ar    1  UNL1        0.0385
      7 C          13.9879   34.4697    9.3385 C.ar    1  UNL1        0.0032
      8 C          13.1227   35.5138    9.6731 C.ar    1  UNL1        0.0017
      9 C          13.5412   36.8379    9.5256 C.ar    1  UNL1        0.0208
     10 C          12.6879   37.8884    9.8498 C.ar    1  UNL1        0.0073
     11 C          13.0977   39.2203    9.6953 C.ar    1  UNL1        0.0673
     12 C          14.4085   39.4645    9.2124 C.ar    1  UNL1        0.0638
     13 C          14.9621   40.8401    9.0564 C.3     1  UNL1        0.0522
     14 C          14.8322   37.1248    9.0406 C.ar    1  UNL1        0.1147
     15 N          15.2237   38.4193    8.9036 N.ar    1  UNL1       -0.2465
     16 C          18.1526   36.2546    9.0318 C.3     1  UNL1        0.2525
     17 O          16.9865   36.3725    8.2285 O.3     1  UNL1       -0.4699
     18 C          10.7347   42.2766    9.2870 C.ar    1  UNL1        0.1880
     19 C           8.9303   43.8400    9.3895 C.ar    1  UNL1        0.1143
     20 N          11.0145   43.3563   10.0499 N.ar    1  UNL1       -0.1256
     21 N          10.0099   44.2290   10.1028 N.ar    1  UNL1       -0.1440
     22 S           9.1915   42.3610    8.6247 S.2     1  UNL1       -0.0346
     23 C           7.6960   44.6627    9.2449 C.3     1  UNL1        0.0808
     24 C           6.7598   44.0568    8.2067 C.3     1  UNL1        0.1340
     25 C           4.5051   42.0283   10.0463 C.ar    1  UNL1        0.0801
     26 C           4.2121   40.9002   10.9684 C.3     1  UNL1        0.0540
     27 C           3.5517   42.8679    9.4893 C.ar    1  UNL1        0.0308
     28 C           4.3235   43.7261    8.7291 C.ar    1  UNL1        0.0571
     29 C           3.7928   44.8425    7.8970 C.3     1  UNL1        0.0517
     30 N           5.6251   43.4009    8.8461 N.ar    1  UNL1       -0.2548
     31 N           5.7472   42.3595    9.6474 N.ar    1  UNL1       -0.1740
@<TRIPOS>BOND
     1    16    17    1
     2     5    17    1
     3     6     7   ar
     4     8     9   ar
     5    10    11   ar
     6    11     1    1
     7     1     3   am
     8    18    22   ar
     9    19    22   ar
    10    23    19    1
    11    23    24    1
    12    24    30    1
    13    25    27   ar
    14    26    25    1
    15    28    30   ar
    16    29    28    1
    17    12    15   ar
    18    13    12    1
    19    14     5   ar
    20    14     9   ar
    21     3    18    1
    22    20    21   ar
    23    30    31   ar
    24     5     6   ar
    25     7     8   ar
    26     9    10   ar
    27    11    12   ar
    28     1     2    2
    29    18    20   ar
    30    19    21   ar
    31    25    31   ar
    32    27    28   ar
    33    14    15   ar
    34     3     4    1
@<TRIPOS>MOLECULE
Molport-016-721-723 19664757 MCULE-1483969681 PubChem-46978769 ZINC000019664757
 31 34 0 0 0
SMALL
GASTEIGER

@<TRIPOS>ATOM
      1 C           9.3497   41.7883    9.9602 C.2     1  UNL1        0.2521
      2 O          10.2294   42.6661   10.1765 O.2     1  UNL1       -0.2697
      3 N           9.7203   40.4049    9.9100 N.am    1  UNL1       -0.2592
      4 H           9.0127   39.7544    9.6969 H       1  UNL1        0.1571
      5 C           3.9217   43.2656    9.1353 C.ar    1  UNL1        0.1562
      6 C           2.9181   42.3063    9.3548 C.ar    1  UNL1        0.0385
      7 C           3.2502   41.0102    9.7610 C.ar    1  UNL1        0.0032
      8 C           4.5878   40.6565    9.9516 C.ar    1  UNL1        0.0017
      9 C           5.5939   41.6010    9.7374 C.ar    1  UNL1        0.0208
     10 C           6.9307   41.2644    9.9288 C.ar    1  UNL1        0.0073
     11 C           7.9456   42.2100    9.7249 C.ar    1  UNL1        0.0673
     12 C           7.5715   43.5124    9.3067 C.ar    1  UNL1        0.0638
     13 C           8.5716   44.5790    9.0149 C.3     1  UNL1        0.0522
     14 C           5.2653   42.9088    9.3301 C.ar    1  UNL1        0.1147
     15 N           6.2571   43.8157    9.1257 N.ar    1  UNL1       -0.2465
     16 C           3.9596   45.0794    7.4501 C.3     1  UNL1        0.2525
     17 O           3.6057   44.5667    8.7272 O.3     1  UNL1       -0.4699
     18 C          11.0352   39.8927   10.1444 C.ar    1  UNL1        0.1880
     19 C          13.0503   38.6295   10.3773 C.ar    1  UNL1        0.1143
     20 N          12.0496   40.6103   10.6756 N.ar    1  UNL1       -0.1256
     21 N          13.1709   39.9041   10.8090 N.ar    1  UNL1       -0.1440
     22 S          11.4949   38.3099    9.8122 S.2     1  UNL1       -0.0346
     23 C          14.1439   37.6208   10.4655 C.3     1  UNL1        0.0808
     24 C          15.1874   37.8569    9.3805 C.3     1  UNL1        0.1340
     25 C          18.3660   37.0815   10.7507 C.ar    1  UNL1        0.0801
     26 C          19.3799   36.1111   11.2399 C.3     1  UNL1        0.0540
     27 C          18.5348   38.4578   10.7161 C.ar    1  UNL1        0.0308
     28 C          17.3322   38.8886   10.1886 C.ar    1  UNL1        0.0571
     29 C          16.9687   40.3123    9.9406 C.3     1  UNL1        0.0517
     30 N          16.5348   37.8327    9.9377 N.ar    1  UNL1       -0.2548
     31 N          17.1567   36.7211   10.2824 N.ar    1  UNL1       -0.1740
@<TRIPOS>BOND
     1    16    17    1
     2     5    17    1
     3     6     7   ar
     4     8     9   ar
     5    10    11   ar
     6    11     1    1
     7     1     3   am
     8    18    22   ar
     9    19    22   ar
    10    23    19    1
    11    23    24    1
    12    24    30    1
    13    25    27   ar
    14    26    25    1
    15    28    30   ar
    16    29    28    1
    17    12    15   ar
    18    13    12    1
    19    14     5   ar
    20    14     9   ar
    21     3    18    1
    22    20    21   ar
    23    30    31   ar
    24     5     6   ar
    25     7     8   ar
    26     9    10   ar
    27    11    12   ar
    28     1     2    2
    29    18    20   ar
    30    19    21   ar
    31    25    31   ar
    32    27    28   ar
    33    14    15   ar
    34     3     4    1
@<TRIPOS>MOLECULE
Molport-016-721-723 19664757 MCULE-1483969681 PubChem-46978769 ZINC000019664757
 31 34 0 0 0
SMALL
GASTEIGER

@<TRIPOS>ATOM
      1 C          12.1382   40.4635   10.3485 C.2     1  UNL1        0.2521
      2 O          11.4050   40.3790   11.3714 O.2     1  UNL1       -0.2697
      3 N          11.8465   41.4402    9.3412 N.am    1  UNL1       -0.2592
      4 H          12.4164   41.4464    8.5385 H       1  UNL1        0.1571
      5 C          16.5898   36.9696    9.7989 C.ar    1  UNL1        0.1562
      6 C          17.8858   37.5005    9.9170 C.ar    1  UNL1        0.0385
      7 C          18.0760   38.8648   10.1575 C.ar    1  UNL1        0.0032
      8 C          16.9747   39.7148   10.2816 C.ar    1  UNL1        0.0017
      9 C          15.6820   39.1990   10.1669 C.ar    1  UNL1        0.0208
     10 C          14.5752   40.0330   10.2938 C.ar    1  UNL1        0.0073
     11 C          13.2743   39.5208   10.1894 C.ar    1  UNL1        0.0673
     12 C          13.1204   38.1335    9.9384 C.ar    1  UNL1        0.0638
     13 C          11.7851   37.4941    9.7616 C.3     1  UNL1        0.0522
     14 C          15.4842   37.8252    9.9267 C.ar    1  UNL1        0.1147
     15 N          14.2193   37.3397    9.8173 N.ar    1  UNL1       -0.2465
     16 C          15.4502   35.1289    8.5971 C.3     1  UNL1        0.2525
     17 O          16.3828   35.6065    9.5568 O.3     1  UNL1       -0.4699
     18 C          10.7942   42.4068    9.4076 C.ar    1  UNL1        0.1880
     19 C           8.8210   43.7396    9.2050 C.ar    1  UNL1        0.1143
     20 N          10.8457   43.5410   10.1405 N.ar    1  UNL1       -0.1256
     21 N           9.7474   44.2851   10.0234 N.ar    1  UNL1       -0.1440
     22 S           9.3493   42.2758    8.5577 S.2     1  UNL1       -0.0346
     23 C           7.5277   44.3983    8.8667 C.3     1  UNL1        0.0808
     24 C           6.7161   43.5374    7.9066 C.3     1  UNL1        0.1340
     25 C           4.2654   41.6725    9.6671 C.ar    1  UNL1        0.0801
     26 C           3.8348   40.4813   10.4445 C.3     1  UNL1        0.0540
     27 C           3.4498   42.7458    9.3403 C.ar    1  UNL1        0.0308
     28 C           4.3099   43.5642    8.6327 C.ar    1  UNL1        0.0571
     29 C           3.9394   44.8755    8.0298 C.3     1  UNL1        0.0517
     30 N           5.5302   42.9991    8.5629 N.ar    1  UNL1       -0.2548
     31 N           5.5129   41.8379    9.1897 N.ar    1  UNL1       -0.1740
@<TRIPOS>BOND
     1    16    17    1
     2     5    17    1
     3     6     7   ar
     4     8     9   ar
     5    10    11   ar
     6    11     1    1
     7     1     3   am
     8    18    22   ar
     9    19    22   ar
    10    23    19    1
    11    23    24    1
    12    24    30    1
    13    25    27   ar
    14    26    25    1
    15    28    30   ar
    16    29    28    1
    17    12    15   ar
    18    13    12    1
    19    14     5   ar
    20    14     9   ar
    21     3    18    1
    22    20    21   ar
    23    30    31   ar
    24     5     6   ar
    25     7     8   ar
    26     9    10   ar
    27    11    12   ar
    28     1     2    2
    29    18    20   ar
    30    19    21   ar
    31    25    31   ar
    32    27    28   ar
    33    14    15   ar
    34     3     4    1
@<TRIPOS>MOLECULE
Molport-016-721-723 19664757 MCULE-1483969681 PubChem-46978769 ZINC000019664757
 31 34 0 0 0
SMALL
GASTEIGER

@<TRIPOS>ATOM
      1 C           9.2109   41.8196    9.1140 C.2     1  UNL1        0.2521
      2 O          10.0011   42.8027    9.1044 O.2     1  UNL1       -0.2697
      3 N           9.7276   40.4884    8.9926 N.am    1  UNL1       -0.2592
      4 H           9.0758   39.7512    8.9618 H       1  UNL1        0.1571
      5 C           3.6193   42.6951    9.6572 C.ar    1  UNL1        0.1562
      6 C           2.9476   42.1229   10.7512 C.ar    1  UNL1        0.0385
      7 C           3.6413   41.3461   11.6843 C.ar    1  UNL1        0.0032
      8 C           5.0132   41.1307   11.5352 C.ar    1  UNL1        0.0017
      9 C           5.6919   41.6944   10.4528 C.ar    1  UNL1        0.0208
     10 C           7.0598   41.4928   10.2945 C.ar    1  UNL1        0.0073
     11 C           7.7496   42.0634    9.2155 C.ar    1  UNL1        0.0673
     12 C           7.0119   42.8394    8.2857 C.ar    1  UNL1        0.0638
     13 C           7.6363   43.4508    7.0776 C.3     1  UNL1        0.0522
     14 C           4.9987   42.4795    9.5108 C.ar    1  UNL1        0.1147
     15 N           5.6746   43.0204    8.4627 N.ar    1  UNL1       -0.2465
     16 C           3.4572   44.6966    8.2085 C.3     1  UNL1        0.2525
     17 O           2.9389   43.4739    8.7139 O.3     1  UNL1       -0.4699
     18 C          11.1136   40.1442    8.9127 C.ar    1  UNL1        0.1880
     19 C          13.4658   39.8179    9.1804 C.ar    1  UNL1        0.1143
     20 N          11.6679   39.4425    7.8995 N.ar    1  UNL1       -0.1256
     21 N          12.9795   39.2651    8.0475 N.ar    1  UNL1       -0.1440
     22 S          12.2556   40.5899   10.0636 S.2     1  UNL1       -0.0346
     23 C          14.9088   39.8039    9.5527 C.3     1  UNL1        0.0808
     24 C          15.1694   38.8056   10.6739 C.3     1  UNL1        0.1340
     25 C          12.8862   36.0918   10.6007 C.ar    1  UNL1        0.0801
     26 C          11.6217   35.4326   11.0194 C.3     1  UNL1        0.0540
     27 C          13.8152   35.5469    9.7266 C.ar    1  UNL1        0.0308
     28 C          14.7811   36.5338    9.6709 C.ar    1  UNL1        0.0571
     29 C          16.0332   36.4597    8.8665 C.3     1  UNL1        0.0517
     30 N          14.4270   37.5695   10.4555 N.ar    1  UNL1       -0.2548
     31 N          13.2699   37.3073   11.0331 N.ar    1  UNL1       -0.1740
@<TRIPOS>BOND
     1    16    17    1
     2     5    17    1
     3     6     7   ar
     4     8     9   ar
     5    10    11   ar
     6    11     1    1
     7     1     3   am
     8    18    22   ar
     9    19    22   ar
    10    23    19    1
    11    23    24    1
    12    24    30    1
    13    25    27   ar
    14    26    25    1
    15    28    30   ar
    16    29    28    1
    17    12    15   ar
    18    13    12    1
    19    14     5   ar
    20    14     9   ar
    21     3    18    1
    22    20    21   ar
    23    30    31   ar
    24     5     6   ar
    25     7     8   ar
    26     9    10   ar
    27    11    12   ar
    28     1     2    2
    29    18    20   ar
    30    19    21   ar
    31    25    31   ar
    32    27    28   ar
    33    14    15   ar
    34     3     4    1
@<TRIPOS>MOLECULE
Molport-016-721-723 19664757 MCULE-1483969681 PubChem-46978769 ZINC000019664757
 31 34 0 0 0
SMALL
GASTEIGER

@<TRIPOS>ATOM
      1 C          12.1081   41.6317    8.8378 C.2     1  UNL1        0.2521
      2 O          11.6001   41.4298    7.7010 O.2     1  UNL1       -0.2697
      3 N          11.4351   42.4767    9.7794 N.am    1  UNL1       -0.2592
      4 H          11.8843   42.6434   10.6395 H       1  UNL1        0.1571
      5 C          17.0466   39.1634   10.1962 C.ar    1  UNL1        0.1562
      6 C          17.0757   38.2497   11.2638 C.ar    1  UNL1        0.0385
      7 C          15.9123   37.9596   11.9832 C.ar    1  UNL1        0.0032
      8 C          14.7069   38.5792   11.6459 C.ar    1  UNL1        0.0017
      9 C          14.6651   39.4883   10.5867 C.ar    1  UNL1        0.0208
     10 C          13.4699   40.1091   10.2357 C.ar    1  UNL1        0.0073
     11 C          13.4183   41.0156    9.1675 C.ar    1  UNL1        0.0673
     12 C          14.6194   41.2903    8.4653 C.ar    1  UNL1        0.0638
     13 C          14.6869   42.2729    7.3459 C.3     1  UNL1        0.0522
     14 C          15.8334   39.7829    9.8570 C.ar    1  UNL1        0.1147
     15 N          15.7752   40.6706    8.8292 N.ar    1  UNL1       -0.2465
     16 C          19.3961   38.7006    9.5664 C.3     1  UNL1        0.2525
     17 O          18.2028   39.4655    9.4672 O.3     1  UNL1       -0.4699
     18 C          10.1635   43.0976    9.5708 C.ar    1  UNL1        0.1880
     19 C           7.9463   43.7497    8.9629 C.ar    1  UNL1        0.1143
     20 N           9.8221   44.3154   10.0470 N.ar    1  UNL1       -0.1256
     21 N           8.5879   44.6797    9.7039 N.ar    1  UNL1       -0.1440
     22 S           8.9194   42.4035    8.6777 S.2     1  UNL1       -0.0346
     23 C           6.5750   43.9368    8.4099 C.3     1  UNL1        0.0808
     24 C           5.8507   42.6013    8.2942 C.3     1  UNL1        0.1340
     25 C           3.5012   42.1633   10.9154 C.ar    1  UNL1        0.0801
     26 C           2.1354   42.2976   11.4858 C.3     1  UNL1        0.0540
     27 C           4.5849   41.5987   11.5718 C.ar    1  UNL1        0.0308
     28 C           5.5909   41.7130   10.6311 C.ar    1  UNL1        0.0571
     29 C           6.9975   41.2609   10.8248 C.3     1  UNL1        0.0517
     30 N           5.1144   42.2989    9.5161 N.ar    1  UNL1       -0.2548
     31 N           3.8363   42.5827    9.6811 N.ar    1  UNL1       -0.1740
@<TRIPOS>BOND
     1    16    17    1
     2     5    17    1
     3     6     7   ar
     4     8     9   ar
     5    10    11   ar
     6    11     1    1
     7     1     3   am
     8    18    22   ar
     9    19    22   ar
    10    23    19    1
    11    23    24    1
    12    24    30    1
    13    25    27   ar
    14    26    25    1
    15    28    30   ar
    16    29    28    1
    17    12    15   ar
    18    13    12    1
    19    14     5   ar
    20    14     9   ar
    21     3    18    1
    22    20    21   ar
    23    30    31   ar
    24     5     6   ar
    25     7     8   ar
    26     9    10   ar
    27    11    12   ar
    28     1     2    2
    29    18    20   ar
    30    19    21   ar
    31    25    31   ar
    32    27    28   ar
    33    14    15   ar
    34     3     4    1
