@<TRIPOS>MOLECULE
MolPort-020-292-478 MCULE-2904049977 PubChem-110264946
 29 31 0 0 0
SMALL
GASTEIGER

@<TRIPOS>ATOM
      1 C          16.3217   41.9184    8.2654 C.ar    1  UNL1        0.0528
      2 C          15.0031   41.4580    8.2297 C.ar    1  UNL1        0.0294
      3 C          14.0471   42.1506    7.4820 C.ar    1  UNL1        0.0609
      4 C          15.6786   43.7436    6.8164 C.ar    1  UNL1        0.0602
      5 C          16.6592   43.0754    7.5515 C.ar    1  UNL1        0.0294
      6 C          16.0285   44.9717    6.0569 C.3     1  UNL1        0.0521
      7 N          14.4037   43.2722    6.7959 N.ar    1  UNL1       -0.2539
      8 C          12.6399   41.6558    7.4509 C.3     1  UNL1        0.0581
      9 C          12.1485   41.4988    6.0084 C.3     1  UNL1        0.0089
     10 C          10.6232   41.5602    5.8972 C.3     1  UNL1        0.0196
     11 C           9.9687   41.1702    7.2199 C.3     1  UNL1        0.0969
     12 C          11.7166   42.5806    8.2516 C.3     1  UNL1        0.1027
     13 N          10.3164   42.1133    8.2962 N.3     1  UNL1       -0.1450
     14 S          10.0640   41.3183    9.8247 S.O2    1  UNL1        0.1021
     15 O          11.2806   41.5055   10.6892 O.2     1  UNL1       -0.1408
     16 O           9.8532   39.8442    9.6069 O.2     1  UNL1       -0.1408
     17 C           7.4984   41.6130    9.9249 C.3     1  UNL1        0.1161
     18 C           8.6004   41.3686   11.9699 C.3     1  UNL1        0.1161
     19 N           8.6942   41.9885   10.6592 N.3     1  UNL1       -0.1424
     20 N          17.2842   41.1939    9.0440 N.pl3   1  UNL1       -0.2825
     21 H          18.2046   41.5432    9.0362 H       1  UNL1        0.1551
     22 C          18.9765   36.9763   10.7968 C.3     1  UNL1        0.0522
     23 C          17.8773   37.9707   10.6904 C.ar    1  UNL1        0.0634
     24 C          16.6692   37.7470   11.3485 C.ar    1  UNL1        0.0296
     25 C          15.6622   38.7016   11.2224 C.ar    1  UNL1        0.0634
     26 C          17.0564   40.0179    9.8325 C.ar    1  UNL1        0.2200
     27 C          14.3589   38.5030   11.9083 C.3     1  UNL1        0.0522
     28 N          15.8717   39.8140   10.4715 N.ar    1  UNL1       -0.2179
     29 N          18.0489   39.0961    9.9489 N.ar    1  UNL1       -0.2179
@<TRIPOS>BOND
     1    22    23    1
     2    23    29   ar
     3    24    25   ar
     4    26    28   ar
     5    26    20    1
     6     2     3   ar
     7     4     7   ar
     8     5     1   ar
     9     6     4    1
    10     8     3    1
    11     8     9    1
    12     9    10    1
    13    10    11    1
    14    11    13    1
    15    12    13    1
    16    12     8    1
    17    17    19    1
    18    18    19    1
    19    27    25    1
    20    20     1    1
    21    14    13    1
    22    14    19    1
    23    23    24   ar
    24    25    28   ar
    25    26    29   ar
    26     1     2   ar
    27     3     7   ar
    28     4     5   ar
    29    14    15    2
    30    14    16    2
    31    20    21    1
@<TRIPOS>MOLECULE
MolPort-020-292-478 MCULE-2904049977 PubChem-110264946
 29 31 0 0 0
SMALL
GASTEIGER

@<TRIPOS>ATOM
      1 C          12.8234   42.0970    6.4927 C.ar    1  UNL1        0.0528
      2 C          12.8526   41.1301    7.5007 C.ar    1  UNL1        0.0294
      3 C          14.0098   40.9609    8.2655 C.ar    1  UNL1        0.0609
      4 C          15.1033   42.6808    7.0454 C.ar    1  UNL1        0.0602
      5 C          13.9637   42.8776    6.2638 C.ar    1  UNL1        0.0294
      6 C          16.3170   43.5044    6.8085 C.3     1  UNL1        0.0521
      7 N          15.1039   41.7353    8.0221 N.ar    1  UNL1       -0.2539
      8 C          14.0359   39.9241    9.3381 C.3     1  UNL1        0.0581
      9 C          12.9008   40.1491   10.3420 C.3     1  UNL1        0.0089
     10 C          13.1936   39.5265   11.7093 C.3     1  UNL1        0.0196
     11 C          14.1949   38.3818   11.5788 C.3     1  UNL1        0.0969
     12 C          15.3977   39.8973   10.0406 C.3     1  UNL1        0.1027
     13 N          15.4980   38.8550   11.0820 N.3     1  UNL1       -0.1450
     14 S          16.3516   37.4976   10.4028 S.O2    1  UNL1        0.1021
     15 O          17.1975   36.8581   11.4695 O.2     1  UNL1       -0.1408
     16 O          17.2531   37.9634    9.2915 O.2     1  UNL1       -0.1408
     17 C          14.0361   36.3667   10.6007 C.3     1  UNL1        0.1161
     18 C          14.8705   36.6629    8.4391 C.3     1  UNL1        0.1161
     19 N          15.2440   36.3028    9.7963 N.3     1  UNL1       -0.1424
     20 N          11.6261   42.2488    5.7173 N.pl3   1  UNL1       -0.2825
     21 H          11.5270   43.0973    5.2281 H       1  UNL1        0.1551
     22 C           9.7240   38.4609    3.3177 C.3     1  UNL1        0.0522
     23 C           9.6327   39.4594    4.4145 C.ar    1  UNL1        0.0634
     24 C           8.5319   39.4568    5.2693 C.ar    1  UNL1        0.0296
     25 C           8.4818   40.4104    6.2839 C.ar    1  UNL1        0.0634
     26 C          10.5573   41.3034    5.5747 C.ar    1  UNL1        0.2200
     27 C           7.3265   40.4424    7.2181 C.3     1  UNL1        0.0522
     28 N           9.4892   41.3116    6.4188 N.ar    1  UNL1       -0.2179
     29 N          10.6207   40.3768    4.5818 N.ar    1  UNL1       -0.2179
@<TRIPOS>BOND
     1    22    23    1
     2    23    29   ar
     3    24    25   ar
     4    26    28   ar
     5    26    20    1
     6     2     3   ar
     7     4     7   ar
     8     5     1   ar
     9     6     4    1
    10     8     3    1
    11     8     9    1
    12     9    10    1
    13    10    11    1
    14    11    13    1
    15    12    13    1
    16    12     8    1
    17    17    19    1
    18    18    19    1
    19    27    25    1
    20    20     1    1
    21    14    13    1
    22    14    19    1
    23    23    24   ar
    24    25    28   ar
    25    26    29   ar
    26     1     2   ar
    27     3     7   ar
    28     4     5   ar
    29    14    15    2
    30    14    16    2
    31    20    21    1
@<TRIPOS>MOLECULE
MolPort-020-292-478 MCULE-2904049977 PubChem-110264946
 29 31 0 0 0
SMALL
GASTEIGER

@<TRIPOS>ATOM
      1 C          12.8444   42.0939    6.4890 C.ar    1  UNL1        0.0528
      2 C          12.8741   41.1293    7.4991 C.ar    1  UNL1        0.0294
      3 C          14.0317   40.9617    8.2637 C.ar    1  UNL1        0.0609
      4 C          15.1248   42.6786    7.0391 C.ar    1  UNL1        0.0602
      5 C          13.9847   42.8739    6.2577 C.ar    1  UNL1        0.0294
      6 C          16.3384   43.5016    6.7998 C.3     1  UNL1        0.0521
      7 N          15.1257   41.7353    8.0180 N.ar    1  UNL1       -0.2539
      8 C          14.0582   39.9272    9.3386 C.3     1  UNL1        0.0581
      9 C          12.9220   40.1529   10.3410 C.3     1  UNL1        0.0089
     10 C          13.2145   39.5338   11.7099 C.3     1  UNL1        0.0196
     11 C          14.2174   38.3901   11.5827 C.3     1  UNL1        0.0969
     12 C          15.4194   39.9037   10.0423 C.3     1  UNL1        0.1027
     13 N          15.5203   38.8638   11.0860 N.3     1  UNL1       -0.1450
     14 S          16.3762   37.5061   10.4105 S.O2    1  UNL1        0.1021
     15 O          17.2245   36.8720   11.4785 O.2     1  UNL1       -0.1408
     16 O          17.2755   37.9701    9.2967 O.2     1  UNL1       -0.1408
     17 C          14.0487   36.3969   10.5894 C.3     1  UNL1        0.1161
     18 C          14.9250   36.6405    8.4379 C.3     1  UNL1        0.1161
     19 N          15.2707   36.3068    9.8091 N.3     1  UNL1       -0.1424
     20 N          11.6468   42.2441    5.7139 N.pl3   1  UNL1       -0.2825
     21 H          11.5386   43.0991    5.2380 H       1  UNL1        0.1551
     22 C           7.3758   40.4797    7.2532 C.3     1  UNL1        0.0522
     23 C           8.5115   40.4323    6.2960 C.ar    1  UNL1        0.0634
     24 C           8.5262   39.4796    5.2789 C.ar    1  UNL1        0.0296
     25 C           9.6097   39.4658    4.4029 C.ar    1  UNL1        0.0634
     26 C          10.5893   41.2887    5.5542 C.ar    1  UNL1        0.2200
     27 C           9.6647   38.4672    3.3037 C.3     1  UNL1        0.0522
     28 N          10.6163   40.3651    4.5543 N.ar    1  UNL1       -0.2179
     29 N           9.5370   41.3155    6.4146 N.ar    1  UNL1       -0.2179
@<TRIPOS>BOND
     1    22    23    1
     2    23    29   ar
     3    24    25   ar
     4    26    28   ar
     5    26    20    1
     6     2     3   ar
     7     4     7   ar
     8     5     1   ar
     9     6     4    1
    10     8     3    1
    11     8     9    1
    12     9    10    1
    13    10    11    1
    14    11    13    1
    15    12    13    1
    16    12     8    1
    17    17    19    1
    18    18    19    1
    19    27    25    1
    20    20     1    1
    21    14    13    1
    22    14    19    1
    23    23    24   ar
    24    25    28   ar
    25    26    29   ar
    26     1     2   ar
    27     3     7   ar
    28     4     5   ar
    29    14    15    2
    30    14    16    2
    31    20    21    1
@<TRIPOS>MOLECULE
MolPort-020-292-478 MCULE-2904049977 PubChem-110264946
 29 31 0 0 0
SMALL
GASTEIGER

@<TRIPOS>ATOM
      1 C          10.2403   41.4085    6.3742 C.ar    1  UNL1        0.0528
      2 C           9.0891   42.1479    6.6565 C.ar    1  UNL1        0.0294
      3 C           7.9736   41.5107    7.2065 C.ar    1  UNL1        0.0609
      4 C           9.1184   39.4294    7.1920 C.ar    1  UNL1        0.0602
      5 C          10.2509   40.0340    6.6441 C.ar    1  UNL1        0.0294
      6 C           9.1216   37.9720    7.4807 C.3     1  UNL1        0.0521
      7 N           8.0123   40.1727    7.4603 N.ar    1  UNL1       -0.2539
      8 C           6.7459   42.3051    7.5024 C.3     1  UNL1        0.0581
      9 C           6.8200   43.6880    6.8473 C.3     1  UNL1        0.0089
     10 C           5.9279   44.7175    7.5453 C.3     1  UNL1        0.0196
     11 C           4.7872   44.0281    8.2894 C.3     1  UNL1        0.0969
     12 C           6.5197   42.4210    9.0137 C.3     1  UNL1        0.1027
     13 N           5.2894   43.1580    9.3661 N.3     1  UNL1       -0.1450
     14 S           4.0550   41.9906    9.7483 S.O2    1  UNL1        0.1021
     15 O           4.3480   40.7034    9.0275 O.2     1  UNL1       -0.1408
     16 O           2.7123   42.4981    9.2964 O.2     1  UNL1       -0.1408
     17 C           2.6986   42.0373   11.9477 C.3     1  UNL1        0.1161
     18 C           4.1485   40.2294   11.6551 C.3     1  UNL1        0.1161
     19 N           4.0126   41.6621   11.4549 N.3     1  UNL1       -0.1424
     20 N          11.3709   42.0834    5.8050 N.pl3   1  UNL1       -0.2825
     21 H          11.2256   42.5229    4.9362 H       1  UNL1        0.1551
     22 C          15.6840   44.3459    5.8587 C.3     1  UNL1        0.0522
     23 C          14.7841   43.2904    6.3921 C.ar    1  UNL1        0.0634
     24 C          15.2291   42.4413    7.4037 C.ar    1  UNL1        0.0296
     25 C          14.3567   41.4628    7.8757 C.ar    1  UNL1        0.0634
     26 C          12.6892   42.1899    6.3594 C.ar    1  UNL1        0.2200
     27 C          14.7905   40.5371    8.9542 C.3     1  UNL1        0.0522
     28 N          13.1092   41.3546    7.3490 N.ar    1  UNL1       -0.2179
     29 N          13.5290   43.1511    5.8912 N.ar    1  UNL1       -0.2179
@<TRIPOS>BOND
     1    22    23    1
     2    23    29   ar
     3    24    25   ar
     4    26    28   ar
     5    26    20    1
     6     2     3   ar
     7     4     7   ar
     8     5     1   ar
     9     6     4    1
    10     8     3    1
    11     8     9    1
    12     9    10    1
    13    10    11    1
    14    11    13    1
    15    12    13    1
    16    12     8    1
    17    17    19    1
    18    18    19    1
    19    27    25    1
    20    20     1    1
    21    14    13    1
    22    14    19    1
    23    23    24   ar
    24    25    28   ar
    25    26    29   ar
    26     1     2   ar
    27     3     7   ar
    28     4     5   ar
    29    14    15    2
    30    14    16    2
    31    20    21    1
@<TRIPOS>MOLECULE
MolPort-020-292-478 MCULE-2904049977 PubChem-110264946
 29 31 0 0 0
SMALL
GASTEIGER

@<TRIPOS>ATOM
      1 C          13.3976   42.5663    6.4325 C.ar    1  UNL1        0.0528
      2 C          13.6836   41.7041    7.4939 C.ar    1  UNL1        0.0294
      3 C          14.9626   41.6981    8.0566 C.ar    1  UNL1        0.0609
      4 C          15.6739   43.3745    6.5315 C.ar    1  UNL1        0.0602
      5 C          14.4067   43.4078    5.9470 C.ar    1  UNL1        0.0294
      6 C          16.7497   44.2636    6.0220 C.3     1  UNL1        0.0521
      7 N          15.9245   42.5284    7.5655 N.ar    1  UNL1       -0.2539
      8 C          15.2628   40.7723    9.1876 C.3     1  UNL1        0.0581
      9 C          16.7581   40.7843    9.5201 C.3     1  UNL1        0.0089
     10 C          17.2134   39.5048   10.2262 C.3     1  UNL1        0.0196
     11 C          16.0410   38.8327   10.9360 C.3     1  UNL1        0.0969
     12 C          14.7773   39.3524    8.8764 C.3     1  UNL1        0.1027
     13 N          15.0050   38.4009    9.9826 N.3     1  UNL1       -0.1450
     14 S          13.5057   38.2155   10.8487 S.O2    1  UNL1        0.1021
     15 O          13.3560   39.3451   11.8306 O.2     1  UNL1       -0.1408
     16 O          13.5106   36.9170   11.6092 O.2     1  UNL1       -0.1408
     17 C          11.3663   37.0496    9.9867 C.3     1  UNL1        0.1161
     18 C          11.3028   39.3809   10.1169 C.3     1  UNL1        0.1161
     19 N          12.1482   38.2533    9.7634 N.3     1  UNL1       -0.1424
     20 N          12.0790   42.5510    5.8677 N.pl3   1  UNL1       -0.2825
     21 H          11.7703   43.3902    5.4558 H       1  UNL1        0.1551
     22 C          10.6092   38.4279    3.7313 C.3     1  UNL1        0.0522
     23 C          10.4465   39.4440    4.8034 C.ar    1  UNL1        0.0634
     24 C           9.4244   39.3096    5.7413 C.ar    1  UNL1        0.0296
     25 C           9.3030   40.2842    6.7297 C.ar    1  UNL1        0.0634
     26 C          11.1601   41.4506    5.8356 C.ar    1  UNL1        0.2200
     27 C           8.2277   40.1790    7.7500 C.3     1  UNL1        0.0522
     28 N          10.1677   41.3314    6.7600 N.ar    1  UNL1       -0.2179
     29 N          11.2920   40.5056    4.8671 N.ar    1  UNL1       -0.2179
@<TRIPOS>BOND
     1    22    23    1
     2    23    29   ar
     3    24    25   ar
     4    26    28   ar
     5    26    20    1
     6     2     3   ar
     7     4     7   ar
     8     5     1   ar
     9     6     4    1
    10     8     3    1
    11     8     9    1
    12     9    10    1
    13    10    11    1
    14    11    13    1
    15    12    13    1
    16    12     8    1
    17    17    19    1
    18    18    19    1
    19    27    25    1
    20    20     1    1
    21    14    13    1
    22    14    19    1
    23    23    24   ar
    24    25    28   ar
    25    26    29   ar
    26     1     2   ar
    27     3     7   ar
    28     4     5   ar
    29    14    15    2
    30    14    16    2
    31    20    21    1
@<TRIPOS>MOLECULE
MolPort-020-292-478 MCULE-2904049977 PubChem-110264946
 29 31 0 0 0
SMALL
GASTEIGER

@<TRIPOS>ATOM
      1 C          15.4812   41.8742    7.9764 C.ar    1  UNL1        0.0528
      2 C          14.2291   41.2773    8.1431 C.ar    1  UNL1        0.0294
      3 C          13.1250   41.7767    7.4470 C.ar    1  UNL1        0.0609
      4 C          14.4796   43.4458    6.4364 C.ar    1  UNL1        0.0602
      5 C          15.6038   42.9717    7.1146 C.ar    1  UNL1        0.0294
      6 C          14.6014   44.6096    5.5209 C.3     1  UNL1        0.0521
      7 N          13.2735   42.8443    6.6140 N.ar    1  UNL1       -0.2539
      8 C          11.7898   41.1371    7.6322 C.3     1  UNL1        0.0581
      9 C          11.6767   40.5031    9.0221 C.3     1  UNL1        0.0089
     10 C          10.6316   39.3860    9.0752 C.3     1  UNL1        0.0196
     11 C           9.5877   39.5698    7.9768 C.3     1  UNL1        0.0969
     12 C          11.5192   40.1062    6.5309 C.3     1  UNL1        0.1027
     13 N          10.1886   39.4741    6.6358 N.3     1  UNL1       -0.1450
     14 S           9.1283   40.2633    5.5022 S.O2    1  UNL1        0.1021
     15 O           9.3952   41.7435    5.5196 O.2     1  UNL1       -0.1408
     16 O           7.6942   40.0304    5.8944 O.2     1  UNL1       -0.1408
     17 C          10.7156   40.1185    3.4677 C.3     1  UNL1        0.1161
     18 C           9.4188   38.2279    3.9151 C.3     1  UNL1        0.1161
     19 N           9.3954   39.6804    3.8864 N.3     1  UNL1       -0.1424
     20 N          16.5987   41.3475    8.7054 N.pl3   1  UNL1       -0.2825
     21 H          17.4568   41.8154    8.5877 H       1  UNL1        0.1551
     22 C          14.2014   38.5432   11.8856 C.3     1  UNL1        0.0522
     23 C          15.4429   38.8479   11.1277 C.ar    1  UNL1        0.0634
     24 C          16.5693   38.0420   11.2827 C.ar    1  UNL1        0.0296
     25 C          17.7147   38.3617   10.5567 C.ar    1  UNL1        0.0634
     26 C          16.6063   40.2159    9.5863 C.ar    1  UNL1        0.2200
     27 C          18.9376   37.5282   10.6915 C.3     1  UNL1        0.0522
     28 N          17.7136   39.4363    9.7257 N.ar    1  UNL1       -0.2179
     29 N          15.4807   39.9141   10.2865 N.ar    1  UNL1       -0.2179
@<TRIPOS>BOND
     1    22    23    1
     2    23    29   ar
     3    24    25   ar
     4    26    28   ar
     5    26    20    1
     6     2     3   ar
     7     4     7   ar
     8     5     1   ar
     9     6     4    1
    10     8     3    1
    11     8     9    1
    12     9    10    1
    13    10    11    1
    14    11    13    1
    15    12    13    1
    16    12     8    1
    17    17    19    1
    18    18    19    1
    19    27    25    1
    20    20     1    1
    21    14    13    1
    22    14    19    1
    23    23    24   ar
    24    25    28   ar
    25    26    29   ar
    26     1     2   ar
    27     3     7   ar
    28     4     5   ar
    29    14    15    2
    30    14    16    2
    31    20    21    1
@<TRIPOS>MOLECULE
MolPort-020-292-478 MCULE-2904049977 PubChem-110264946
 29 31 0 0 0
SMALL
GASTEIGER

@<TRIPOS>ATOM
      1 C          13.5096   40.1783    9.0587 C.ar    1  UNL1        0.0528
      2 C          12.5322   41.1755    9.0143 C.ar    1  UNL1        0.0294
      3 C          11.1957   40.8474    9.2569 C.ar    1  UNL1        0.0609
      4 C          11.7825   38.5680    9.5767 C.ar    1  UNL1        0.0602
      5 C          13.1268   38.8608    9.3411 C.ar    1  UNL1        0.0294
      6 C          11.3684   37.1729    9.8765 C.3     1  UNL1        0.0521
      7 N          10.8520   39.5579    9.5307 N.ar    1  UNL1       -0.2539
      8 C          10.1560   41.9163    9.2044 C.3     1  UNL1        0.0581
      9 C          10.6553   43.1966    9.8813 C.3     1  UNL1        0.0089
     10 C           9.5107   44.0902   10.3654 C.3     1  UNL1        0.0196
     11 C           8.2376   43.8165    9.5691 C.3     1  UNL1        0.0969
     12 C           8.8436   41.4348    9.8324 C.3     1  UNL1        0.1027
     13 N           7.7610   42.4370    9.7652 N.3     1  UNL1       -0.1450
     14 S           6.7249   42.0196    8.4293 S.O2    1  UNL1        0.1021
     15 O           7.1667   40.7036    7.8500 O.2     1  UNL1       -0.1408
     16 O           6.8218   43.0716    7.3576 O.2     1  UNL1       -0.1408
     17 C           5.0682   41.1416   10.2080 C.3     1  UNL1        0.1161
     18 C           4.5392   43.1860    9.2095 C.3     1  UNL1        0.1161
     19 N           5.0727   41.8604    8.9457 N.3     1  UNL1       -0.1424
     20 N          14.8741   40.5383    8.8012 N.pl3   1  UNL1       -0.2825
     21 H          15.5605   39.9174    9.1365 H       1  UNL1        0.1551
     22 C          14.0849   44.0075    5.4746 C.3     1  UNL1        0.0522
     23 C          14.9683   43.3913    6.4985 C.ar    1  UNL1        0.0634
     24 C          16.2189   43.9460    6.7645 C.ar    1  UNL1        0.0296
     25 C          17.0190   43.3381    7.7297 C.ar    1  UNL1        0.0634
     26 C          15.3506   41.7010    8.1102 C.ar    1  UNL1        0.2200
     27 C          18.3591   43.8976    8.0450 C.3     1  UNL1        0.0522
     28 N          16.5739   42.2330    8.3823 N.ar    1  UNL1       -0.2179
     29 N          14.5582   42.2854    7.1726 N.ar    1  UNL1       -0.2179
@<TRIPOS>BOND
     1    22    23    1
     2    23    29   ar
     3    24    25   ar
     4    26    28   ar
     5    26    20    1
     6     2     3   ar
     7     4     7   ar
     8     5     1   ar
     9     6     4    1
    10     8     3    1
    11     8     9    1
    12     9    10    1
    13    10    11    1
    14    11    13    1
    15    12    13    1
    16    12     8    1
    17    17    19    1
    18    18    19    1
    19    27    25    1
    20    20     1    1
    21    14    13    1
    22    14    19    1
    23    23    24   ar
    24    25    28   ar
    25    26    29   ar
    26     1     2   ar
    27     3     7   ar
    28     4     5   ar
    29    14    15    2
    30    14    16    2
    31    20    21    1
@<TRIPOS>MOLECULE
MolPort-020-292-478 MCULE-2904049977 PubChem-110264946
 29 31 0 0 0
SMALL
GASTEIGER

@<TRIPOS>ATOM
      1 C          13.3749   42.0516    6.7186 C.ar    1  UNL1        0.0528
      2 C          13.8408   41.2207    7.7405 C.ar    1  UNL1        0.0294
      3 C          15.0999   41.4510    8.3013 C.ar    1  UNL1        0.0609
      4 C          15.4400   43.3015    6.8513 C.ar    1  UNL1        0.0602
      5 C          14.1868   43.1012    6.2700 C.ar    1  UNL1        0.0294
      6 C          16.3073   44.4123    6.3808 C.3     1  UNL1        0.0521
      7 N          15.8678   42.4803    7.8466 N.ar    1  UNL1       -0.2539
      8 C          15.5933   40.5577    9.3897 C.3     1  UNL1        0.0581
      9 C          17.1056   40.7126    9.5790 C.3     1  UNL1        0.0089
     10 C          17.7458   39.4822   10.2265 C.3     1  UNL1        0.0196
     11 C          16.7158   38.7008   11.0379 C.3     1  UNL1        0.0969
     12 C          15.2177   39.0980    9.1126 C.3     1  UNL1        0.1027
     13 N          15.6394   38.1722   10.1831 N.3     1  UNL1       -0.1450
     14 S          14.2541   37.8440   11.1858 S.O2    1  UNL1        0.1021
     15 O          13.6699   39.1437   11.6674 O.2     1  UNL1       -0.1408
     16 O          14.6691   37.0322   12.3831 O.2     1  UNL1       -0.1408
     17 C          12.3278   37.9560    9.4665 C.3     1  UNL1        0.1161
     18 C          13.6745   36.0486    9.4005 C.3     1  UNL1        0.1161
     19 N          13.0273   36.9912   10.2971 N.3     1  UNL1       -0.1424
     20 N          12.0815   41.7925    6.1550 N.pl3   1  UNL1       -0.2825
     21 H          11.9802   41.9730    5.1925 H       1  UNL1        0.1551
     22 C           8.3942   42.6398    9.2226 C.3     1  UNL1        0.0522
     23 C           9.1235   41.7098    8.3217 C.ar    1  UNL1        0.0634
     24 C           8.6715   40.4017    8.1569 C.ar    1  UNL1        0.0296
     25 C           9.3838   39.5595    7.3056 C.ar    1  UNL1        0.0634
     26 C          10.9195   41.3001    6.8359 C.ar    1  UNL1        0.2200
     27 C           8.9359   38.1575    7.1006 C.3     1  UNL1        0.0522
     28 N          10.4885   40.0202    6.6633 N.ar    1  UNL1       -0.2179
     29 N          10.2326   42.1338    7.6615 N.ar    1  UNL1       -0.2179
@<TRIPOS>BOND
     1    22    23    1
     2    23    29   ar
     3    24    25   ar
     4    26    28   ar
     5    26    20    1
     6     2     3   ar
     7     4     7   ar
     8     5     1   ar
     9     6     4    1
    10     8     3    1
    11     8     9    1
    12     9    10    1
    13    10    11    1
    14    11    13    1
    15    12    13    1
    16    12     8    1
    17    17    19    1
    18    18    19    1
    19    27    25    1
    20    20     1    1
    21    14    13    1
    22    14    19    1
    23    23    24   ar
    24    25    28   ar
    25    26    29   ar
    26     1     2   ar
    27     3     7   ar
    28     4     5   ar
    29    14    15    2
    30    14    16    2
    31    20    21    1
@<TRIPOS>MOLECULE
MolPort-020-292-478 MCULE-2904049977 PubChem-110264946
 29 31 0 0 0
SMALL
GASTEIGER

@<TRIPOS>ATOM
      1 C          15.8114   41.7814    8.0863 C.ar    1  UNL1        0.0528
      2 C          14.4925   41.3482    8.2437 C.ar    1  UNL1        0.0294
      3 C          13.4571   42.0317    7.6006 C.ar    1  UNL1        0.0609
      4 C          15.0114   43.5627    6.6610 C.ar    1  UNL1        0.0602
      5 C          16.0699   42.9025    7.2873 C.ar    1  UNL1        0.0294
      6 C          15.2773   44.7528    5.8123 C.3     1  UNL1        0.0521
      7 N          13.7376   43.1182    6.8281 N.ar    1  UNL1       -0.2539
      8 C          12.0504   41.5663    7.7756 C.3     1  UNL1        0.0581
      9 C          11.7967   41.1279    9.2214 C.3     1  UNL1        0.0089
     10 C          10.6303   40.1441    9.3411 C.3     1  UNL1        0.0196
     11 C           9.6701   40.2983    8.1645 C.3     1  UNL1        0.0969
     12 C          11.7198   40.4398    6.7905 C.3     1  UNL1        0.1027
     13 N          10.3225   39.9713    6.8854 N.3     1  UNL1       -0.1450
     14 S           9.4166   40.7201    5.6005 S.O2    1  UNL1        0.1021
     15 O          10.0589   40.3893    4.2812 O.2     1  UNL1       -0.1408
     16 O           9.4209   42.2149    5.7743 O.2     1  UNL1       -0.1408
     17 C           7.7279   38.9094    6.3416 C.3     1  UNL1        0.1161
     18 C           6.9313   41.1033    6.2508 C.3     1  UNL1        0.1161
     19 N           7.7785   40.1390    5.5699 N.3     1  UNL1       -0.1424
     20 N          16.8568   41.0670    8.7604 N.pl3   1  UNL1       -0.2825
     21 H          17.7761   41.3771    8.5932 H       1  UNL1        0.1551
     22 C          18.8350   37.1328   10.8420 C.3     1  UNL1        0.0522
     23 C          17.6731   38.0428   10.6681 C.ar    1  UNL1        0.0634
     24 C          16.4889   37.8013   11.3622 C.ar    1  UNL1        0.0296
     25 C          15.4213   38.6758   11.1706 C.ar    1  UNL1        0.0634
     26 C          16.7134   39.9519    9.6506 C.ar    1  UNL1        0.2200
     27 C          14.1408   38.4556   11.8918 C.3     1  UNL1        0.0522
     28 N          15.5510   39.7299   10.3237 N.ar    1  UNL1       -0.2179
     29 N          17.7643   39.1082    9.8300 N.ar    1  UNL1       -0.2179
@<TRIPOS>BOND
     1    22    23    1
     2    23    29   ar
     3    24    25   ar
     4    26    28   ar
     5    26    20    1
     6     2     3   ar
     7     4     7   ar
     8     5     1   ar
     9     6     4    1
    10     8     3    1
    11     8     9    1
    12     9    10    1
    13    10    11    1
    14    11    13    1
    15    12    13    1
    16    12     8    1
    17    17    19    1
    18    18    19    1
    19    27    25    1
    20    20     1    1
    21    14    13    1
    22    14    19    1
    23    23    24   ar
    24    25    28   ar
    25    26    29   ar
    26     1     2   ar
    27     3     7   ar
    28     4     5   ar
    29    14    15    2
    30    14    16    2
    31    20    21    1
@<TRIPOS>MOLECULE
MolPort-020-292-478 MCULE-2904049977 PubChem-110264946
 29 31 0 0 0
SMALL
GASTEIGER

@<TRIPOS>ATOM
      1 C          12.6856   41.7903    6.7787 C.ar    1  UNL1        0.0528
      2 C          12.9603   40.8082    7.7335 C.ar    1  UNL1        0.0294
      3 C          14.2173   40.7660    8.3425 C.ar    1  UNL1        0.0609
      4 C          14.9291   42.6421    7.0713 C.ar    1  UNL1        0.0602
      5 C          13.6838   42.7145    6.4447 C.ar    1  UNL1        0.0294
      6 C          15.9933   43.6184    6.7222 C.3     1  UNL1        0.0521
      7 N          15.1690   41.6785    7.9996 N.ar    1  UNL1       -0.2539
      8 C          14.5057   39.7124    9.3588 C.3     1  UNL1        0.0581
      9 C          13.4729   39.7480   10.4897 C.3     1  UNL1        0.0089
     10 C          14.0015   39.1332   11.7879 C.3     1  UNL1        0.0196
     11 C          15.1268   38.1434   11.4982 C.3     1  UNL1        0.0969
     12 C          15.9299   39.8553    9.9065 C.3     1  UNL1        0.1027
     13 N          16.2886   38.8075   10.8835 N.3     1  UNL1       -0.1450
     14 S          17.2346   37.6025   10.0556 S.O2    1  UNL1        0.1021
     15 O          16.4181   37.0098    8.9400 O.2     1  UNL1       -0.1408
     16 O          17.6116   36.5021   11.0105 O.2     1  UNL1       -0.1408
     17 C          19.4415   38.8882   10.4504 C.3     1  UNL1        0.1161
     18 C          19.4798   37.2324    8.8032 C.3     1  UNL1        0.1161
     19 N          18.6714   38.2992    9.3686 N.3     1  UNL1       -0.1424
     20 N          11.3899   41.8105    6.1634 N.pl3   1  UNL1       -0.2825
     21 H          11.3651   42.0312    5.2043 H       1  UNL1        0.1551
     22 C           8.3217   42.6551    9.8508 C.3     1  UNL1        0.0522
     23 C           8.6312   41.9575    8.5756 C.ar    1  UNL1        0.0634
     24 C           7.7044   41.0770    8.0204 C.ar    1  UNL1        0.0296
     25 C           8.0324   40.4405    6.8252 C.ar    1  UNL1        0.0634
     26 C          10.1268   41.5454    6.7884 C.ar    1  UNL1        0.2200
     27 C           7.0728   39.4947    6.1984 C.3     1  UNL1        0.0522
     28 N           9.2304   40.6842    6.2330 N.ar    1  UNL1       -0.2179
     29 N           9.8188   42.1756    7.9530 N.ar    1  UNL1       -0.2179
@<TRIPOS>BOND
     1    22    23    1
     2    23    29   ar
     3    24    25   ar
     4    26    28   ar
     5    26    20    1
     6     2     3   ar
     7     4     7   ar
     8     5     1   ar
     9     6     4    1
    10     8     3    1
    11     8     9    1
    12     9    10    1
    13    10    11    1
    14    11    13    1
    15    12    13    1
    16    12     8    1
    17    17    19    1
    18    18    19    1
    19    27    25    1
    20    20     1    1
    21    14    13    1
    22    14    19    1
    23    23    24   ar
    24    25    28   ar
    25    26    29   ar
    26     1     2   ar
    27     3     7   ar
    28     4     5   ar
    29    14    15    2
    30    14    16    2
    31    20    21    1
