@<TRIPOS>MOLECULE
MolPort-020-292-455 MCULE-2646133063 PubChem-110264923
 33 36 0 0 0
SMALL
GASTEIGER

@<TRIPOS>ATOM
      1 C          13.0192   39.4961    9.7307 C.3     1  UNL1        0.0563
      2 C          12.7855   37.9921    9.6983 C.3     1  UNL1        0.0087
      3 C          11.2915   37.7138    9.6956 C.3     1  UNL1        0.0178
      4 C          10.6365   38.4148    8.5018 C.3     1  UNL1        0.0725
      5 C          12.3162   40.1664    8.5432 C.3     1  UNL1        0.0784
      6 N          10.8784   39.8664    8.4972 N.3     1  UNL1       -0.2647
      7 C          17.6228   38.4123   11.1692 C.3     1  UNL1        0.0521
      8 C          16.6943   39.2852   10.4052 C.ar    1  UNL1        0.0602
      9 C          17.1926   40.3735    9.6871 C.ar    1  UNL1        0.0294
     10 C          16.3110   41.1918    8.9692 C.ar    1  UNL1        0.0518
     11 C          14.9450   40.8998    8.9873 C.ar    1  UNL1        0.0294
     12 C          14.4800   39.8026    9.7169 C.ar    1  UNL1        0.0608
     13 N          15.3602   39.0234   10.4059 N.ar    1  UNL1       -0.2539
     14 N          16.7640   42.3234    8.2129 N.pl3   1  UNL1       -0.2966
     15 H          17.7004   42.5943    8.3508 H       1  UNL1        0.1537
     16 C          16.0069   43.1046    7.2788 C.ar    1  UNL1        0.1516
     17 C          14.1154   43.4021    5.8784 C.ar    1  UNL1        0.1210
     18 C          14.5993   44.6516    5.4887 C.ar    1  UNL1        0.1196
     19 C          16.4880   44.3557    6.8864 C.ar    1  UNL1        0.1332
     20 N          14.8286   42.6573    6.7635 N.ar    1  UNL1       -0.2258
     21 N          15.7751   45.1011    6.0011 N.ar    1  UNL1       -0.2378
     22 C          10.2040   40.4984    9.6289 C.3     1  UNL1        0.1587
     23 C           9.1464   41.4287    9.1435 C.2     1  UNL1        0.2425
     24 N           7.8250   41.3434    9.6937 N.am    1  UNL1       -0.2828
     25 O           9.4298   42.2699    8.2505 O.2     1  UNL1       -0.2733
     26 H           7.6751   40.6499   10.3762 H       1  UNL1        0.1549
     27 C           6.6993   42.1636    9.3529 C.ar    1  UNL1        0.0505
     28 C           6.8452   43.3760    8.6607 C.ar    1  UNL1        0.0170
     29 C           5.7244   44.1502    8.3468 C.ar    1  UNL1        0.0309
     30 C           4.4501   43.7179    8.7233 C.ar    1  UNL1        0.1402
     31 C           4.2972   42.5122    9.4132 C.ar    1  UNL1        0.0309
     32 C           5.4192   41.7388    9.7265 C.ar    1  UNL1        0.0170
     33 F           3.3633   44.4671    8.4197 F       1  UNL1       -0.2042
@<TRIPOS>BOND
     1     7     8    1
     2     8    13   ar
     3     9    10   ar
     4    10    14    1
     5    11    12   ar
     6     1    12    1
     7     1     2    1
     8     2     3    1
     9     3     4    1
    10     4     6    1
    11     5     6    1
    12     5     1    1
    13    22     6    1
    14    22    23    1
    15    23    24   am
    16    28    29   ar
    17    30    31   ar
    18    30    33    1
    19    32    27   ar
    20    17    20   ar
    21    18    21   ar
    22    19    16   ar
    23    24    27    1
    24    14    16    1
    25     8     9   ar
    26    10    11   ar
    27    12    13   ar
    28    23    25    2
    29    27    28   ar
    30    29    30   ar
    31    31    32   ar
    32    16    20   ar
    33    17    18   ar
    34    19    21   ar
    35    24    26    1
    36    14    15    1
@<TRIPOS>MOLECULE
MolPort-020-292-455 MCULE-2646133063 PubChem-110264923
 33 36 0 0 0
SMALL
GASTEIGER

@<TRIPOS>ATOM
      1 C          11.2528   39.0123    8.5505 C.3     1  UNL1        0.0563
      2 C           9.9650   38.2520    8.2657 C.3     1  UNL1        0.0087
      3 C           9.0623   39.1006    7.3857 C.3     1  UNL1        0.0178
      4 C           9.7984   39.4719    6.0949 C.3     1  UNL1        0.0725
      5 C          11.9400   39.4005    7.2349 C.3     1  UNL1        0.0784
      6 N          11.0631   40.1797    6.3499 N.3     1  UNL1       -0.2647
      7 C          14.6447   38.7479   12.1369 C.3     1  UNL1        0.0521
      8 C          13.7993   38.0645   11.1240 C.ar    1  UNL1        0.0602
      9 C          13.8686   36.6780   10.9789 C.ar    1  UNL1        0.0294
     10 C          13.0684   36.0408   10.0219 C.ar    1  UNL1        0.0518
     11 C          12.2137   36.8105    9.2291 C.ar    1  UNL1        0.0294
     12 C          12.1694   38.1965    9.4005 C.ar    1  UNL1        0.0608
     13 N          12.9587   38.7899   10.3394 N.ar    1  UNL1       -0.2539
     14 N          13.0960   34.6199    9.8272 N.pl3   1  UNL1       -0.2966
     15 H          12.3859   34.1040   10.2732 H       1  UNL1        0.1537
     16 C          14.0412   33.8660    9.0562 C.ar    1  UNL1        0.1516
     17 C          14.7144   31.8560    7.9914 C.ar    1  UNL1        0.1210
     18 C          15.8950   32.4717    7.5736 C.ar    1  UNL1        0.1196
     19 C          15.2239   34.4788    8.6363 C.ar    1  UNL1        0.1332
     20 N          13.8149   32.5655    8.7222 N.ar    1  UNL1       -0.2258
     21 N          16.1240   33.7696    7.9053 N.ar    1  UNL1       -0.2378
     22 C          10.8026   41.4908    6.9399 C.3     1  UNL1        0.1587
     23 C          12.0771   42.1108    7.3993 C.2     1  UNL1        0.2425
     24 N          13.1919   42.1809    6.5002 N.am    1  UNL1       -0.2828
     25 O          12.1559   42.5558    8.5745 O.2     1  UNL1       -0.2733
     26 H          13.0601   41.7973    5.6032 H       1  UNL1        0.1549
     27 C          14.4789   42.7517    6.7723 C.ar    1  UNL1        0.0505
     28 C          15.3969   42.1369    7.6381 C.ar    1  UNL1        0.0170
     29 C          16.6422   42.7238    7.8806 C.ar    1  UNL1        0.0309
     30 C          16.9781   43.9296    7.2597 C.ar    1  UNL1        0.1402
     31 C          16.0688   44.5479    6.3970 C.ar    1  UNL1        0.0309
     32 C          14.8236   43.9597    6.1553 C.ar    1  UNL1        0.0170
     33 F          18.1844   44.4993    7.4939 F       1  UNL1       -0.2042
@<TRIPOS>BOND
     1     7     8    1
     2     8    13   ar
     3     9    10   ar
     4    10    14    1
     5    11    12   ar
     6     1    12    1
     7     1     2    1
     8     2     3    1
     9     3     4    1
    10     4     6    1
    11     5     6    1
    12     5     1    1
    13    22     6    1
    14    22    23    1
    15    23    24   am
    16    28    29   ar
    17    30    31   ar
    18    30    33    1
    19    32    27   ar
    20    17    20   ar
    21    18    21   ar
    22    19    16   ar
    23    24    27    1
    24    14    16    1
    25     8     9   ar
    26    10    11   ar
    27    12    13   ar
    28    23    25    2
    29    27    28   ar
    30    29    30   ar
    31    31    32   ar
    32    16    20   ar
    33    17    18   ar
    34    19    21   ar
    35    24    26    1
    36    14    15    1
@<TRIPOS>MOLECULE
MolPort-020-292-455 MCULE-2646133063 PubChem-110264923
 33 36 0 0 0
SMALL
GASTEIGER

@<TRIPOS>ATOM
      1 C           9.7563   42.8868    8.8305 C.3     1  UNL1        0.0563
      2 C           9.6346   44.0118    9.8489 C.3     1  UNL1        0.0087
      3 C           8.3245   44.7504    9.6305 C.3     1  UNL1        0.0178
      4 C           7.1537   43.7680    9.7289 C.3     1  UNL1        0.0725
      5 C           8.5478   41.9474    8.9331 C.3     1  UNL1        0.0784
      6 N           7.2695   42.6544    8.7738 N.3     1  UNL1       -0.2647
      7 C          12.4678   39.7211   11.4880 C.3     1  UNL1        0.0521
      8 C          12.3341   40.6089   10.3041 C.ar    1  UNL1        0.0602
      9 C          13.3888   40.7253    9.3973 C.ar    1  UNL1        0.0294
     10 C          13.2552   41.5642    8.2835 C.ar    1  UNL1        0.0518
     11 C          12.0632   42.2700    8.1030 C.ar    1  UNL1        0.0294
     12 C          11.0275   42.1304    9.0304 C.ar    1  UNL1        0.0608
     13 N          11.1847   41.3071   10.1047 N.ar    1  UNL1       -0.2539
     14 N          14.3039   41.7240    7.3178 N.pl3   1  UNL1       -0.2966
     15 H          14.1723   41.2746    6.4518 H       1  UNL1        0.1537
     16 C          15.5221   42.4645    7.4715 C.ar    1  UNL1        0.1516
     17 C          17.7069   42.6989    8.3655 C.ar    1  UNL1        0.1210
     18 C          17.8362   43.9336    7.7281 C.ar    1  UNL1        0.1196
     19 C          15.6552   43.7005    6.8350 C.ar    1  UNL1        0.1332
     20 N          16.5546   41.9926    8.2234 N.ar    1  UNL1       -0.2258
     21 N          16.8075   44.4075    6.9768 N.ar    1  UNL1       -0.2378
     22 C           7.1416   43.1441    7.4032 C.3     1  UNL1        0.1587
     23 C           7.4854   42.0637    6.4365 C.2     1  UNL1        0.2425
     24 N           8.8349   41.5843    6.3650 N.am    1  UNL1       -0.2828
     25 O           6.5848   41.5955    5.6916 O.2     1  UNL1       -0.2733
     26 H           9.4870   42.0102    6.9672 H       1  UNL1        0.1549
     27 C           9.3330   40.5487    5.5073 C.ar    1  UNL1        0.0505
     28 C          10.4411   40.7469    4.6687 C.ar    1  UNL1        0.0170
     29 C          10.8977   39.7141    3.8447 C.ar    1  UNL1        0.0309
     30 C          10.2494   38.4763    3.8531 C.ar    1  UNL1        0.1402
     31 C           9.1452   38.2720    4.6850 C.ar    1  UNL1        0.0309
     32 C           8.6895   39.3059    5.5087 C.ar    1  UNL1        0.0170
     33 F          10.6909   37.4748    3.0552 F       1  UNL1       -0.2042
@<TRIPOS>BOND
     1     7     8    1
     2     8    13   ar
     3     9    10   ar
     4    10    14    1
     5    11    12   ar
     6     1    12    1
     7     1     2    1
     8     2     3    1
     9     3     4    1
    10     4     6    1
    11     5     6    1
    12     5     1    1
    13    22     6    1
    14    22    23    1
    15    23    24   am
    16    28    29   ar
    17    30    31   ar
    18    30    33    1
    19    32    27   ar
    20    17    20   ar
    21    18    21   ar
    22    19    16   ar
    23    24    27    1
    24    14    16    1
    25     8     9   ar
    26    10    11   ar
    27    12    13   ar
    28    23    25    2
    29    27    28   ar
    30    29    30   ar
    31    31    32   ar
    32    16    20   ar
    33    17    18   ar
    34    19    21   ar
    35    24    26    1
    36    14    15    1
@<TRIPOS>MOLECULE
MolPort-020-292-455 MCULE-2646133063 PubChem-110264923
 33 36 0 0 0
SMALL
GASTEIGER

@<TRIPOS>ATOM
      1 C          10.7182   38.9982    8.0581 C.3     1  UNL1        0.0563
      2 C           9.3973   38.3405    7.6835 C.3     1  UNL1        0.0087
      3 C           8.5325   39.3383    6.9312 C.3     1  UNL1        0.0178
      4 C           9.2829   39.8459    5.6963 C.3     1  UNL1        0.0725
      5 C          11.4205   39.5280    6.8012 C.3     1  UNL1        0.0784
      6 N          10.5784   40.4566    6.0345 N.3     1  UNL1       -0.2647
      7 C          11.2617   35.3921   11.3953 C.3     1  UNL1        0.0521
      8 C          11.8641   36.3026   10.3875 C.ar    1  UNL1        0.0602
      9 C          13.2352   36.2495   10.1312 C.ar    1  UNL1        0.0294
     10 C          13.7958   37.1110    9.1795 C.ar    1  UNL1        0.0518
     11 C          12.9666   38.0094    8.5037 C.ar    1  UNL1        0.0294
     12 C          11.5982   38.0363    8.7849 C.ar    1  UNL1        0.0608
     13 N          11.0797   37.1866    9.7155 N.ar    1  UNL1       -0.2539
     14 N          15.1973   37.1024    8.8733 N.pl3   1  UNL1       -0.2966
     15 H          15.4743   36.5442    8.1112 H       1  UNL1        0.1537
     16 C          16.2401   37.8150    9.5521 C.ar    1  UNL1        0.1516
     17 C          17.2380   39.8447   10.2673 C.ar    1  UNL1        0.1210
     18 C          18.2708   39.1255   10.8702 C.ar    1  UNL1        0.1196
     19 C          17.2754   37.0986   10.1568 C.ar    1  UNL1        0.1332
     20 N          16.2469   39.1748    9.6226 N.ar    1  UNL1       -0.2258
     21 N          18.2670   37.7682   10.8017 N.ar    1  UNL1       -0.2378
     22 C          10.3776   41.6873    6.7960 C.3     1  UNL1        0.1587
     23 C          11.6905   42.2514    7.2179 C.2     1  UNL1        0.2425
     24 N          12.7067   42.4858    6.2338 N.am    1  UNL1       -0.2828
     25 O          11.8883   42.5049    8.4353 O.2     1  UNL1       -0.2733
     26 H          12.4845   42.2475    5.3048 H       1  UNL1        0.1549
     27 C          14.0128   43.0315    6.4626 C.ar    1  UNL1        0.0505
     28 C          14.4165   44.2537    5.9025 C.ar    1  UNL1        0.0170
     29 C          15.6988   44.7538    6.1465 C.ar    1  UNL1        0.0309
     30 C          16.5866   44.0354    6.9515 C.ar    1  UNL1        0.1402
     31 C          16.1918   42.8175    7.5120 C.ar    1  UNL1        0.0309
     32 C          14.9088   42.3184    7.2672 C.ar    1  UNL1        0.0170
     33 F          17.8293   44.5190    7.1887 F       1  UNL1       -0.2042
@<TRIPOS>BOND
     1     7     8    1
     2     8    13   ar
     3     9    10   ar
     4    10    14    1
     5    11    12   ar
     6     1    12    1
     7     1     2    1
     8     2     3    1
     9     3     4    1
    10     4     6    1
    11     5     6    1
    12     5     1    1
    13    22     6    1
    14    22    23    1
    15    23    24   am
    16    28    29   ar
    17    30    31   ar
    18    30    33    1
    19    32    27   ar
    20    17    20   ar
    21    18    21   ar
    22    19    16   ar
    23    24    27    1
    24    14    16    1
    25     8     9   ar
    26    10    11   ar
    27    12    13   ar
    28    23    25    2
    29    27    28   ar
    30    29    30   ar
    31    31    32   ar
    32    16    20   ar
    33    17    18   ar
    34    19    21   ar
    35    24    26    1
    36    14    15    1
@<TRIPOS>MOLECULE
MolPort-020-292-455 MCULE-2646133063 PubChem-110264923
 33 36 0 0 0
SMALL
GASTEIGER

@<TRIPOS>ATOM
      1 C          13.1234   39.8371    9.3758 C.3     1  UNL1        0.0563
      2 C          12.4189   40.3648   10.6179 C.3     1  UNL1        0.0087
      3 C          10.9298   40.0803   10.5125 C.3     1  UNL1        0.0178
      4 C          10.7019   38.5771   10.3275 C.3     1  UNL1        0.0725
      5 C          12.8396   38.3393    9.2029 C.3     1  UNL1        0.0784
      6 N          11.4018   38.0409    9.1494 N.3     1  UNL1       -0.2647
      7 C          17.5543   38.6780   11.2359 C.3     1  UNL1        0.0521
      8 C          16.7244   39.5330   10.3482 C.ar    1  UNL1        0.0602
      9 C          17.3216   40.5520    9.6043 C.ar    1  UNL1        0.0294
     10 C          16.5326   41.3538    8.7696 C.ar    1  UNL1        0.0518
     11 C          15.1580   41.1153    8.6989 C.ar    1  UNL1        0.0294
     12 C          14.5927   40.0868    9.4573 C.ar    1  UNL1        0.0608
     13 N          15.3842   39.3222   10.2608 N.ar    1  UNL1       -0.2539
     14 N          17.0894   42.4153    7.9815 N.pl3   1  UNL1       -0.2966
     15 H          18.0676   42.5204    8.0193 H       1  UNL1        0.1537
     16 C          16.3822   43.3404    7.1449 C.ar    1  UNL1        0.1516
     17 C          14.4131   44.0238    6.0121 C.ar    1  UNL1        0.1210
     18 C          15.0788   45.1536    5.5348 C.ar    1  UNL1        0.1196
     19 C          17.0450   44.4723    6.6652 C.ar    1  UNL1        0.1332
     20 N          15.0783   43.1435    6.8055 N.ar    1  UNL1       -0.2258
     21 N          16.3802   45.3531    5.8717 N.ar    1  UNL1       -0.2378
     22 C          10.8274   38.5891    7.9228 C.3     1  UNL1        0.1587
     23 C          10.5488   40.0432    8.0902 C.2     1  UNL1        0.2425
     24 N           9.2437   40.4683    8.5049 N.am    1  UNL1       -0.2828
     25 O          11.4639   40.8756    7.8558 O.2     1  UNL1       -0.2733
     26 H           8.5755   39.7606    8.6533 H       1  UNL1        0.1549
     27 C           8.8108   41.8174    8.7258 C.ar    1  UNL1        0.0505
     28 C           7.8958   42.4537    7.8725 C.ar    1  UNL1        0.0170
     29 C           7.4978   43.7709    8.1187 C.ar    1  UNL1        0.0309
     30 C           8.0123   44.4612    9.2192 C.ar    1  UNL1        0.1402
     31 C           8.9243   43.8343   10.0727 C.ar    1  UNL1        0.0309
     32 C           9.3214   42.5167    9.8253 C.ar    1  UNL1        0.0170
     33 F           7.6274   45.7376    9.4588 F       1  UNL1       -0.2042
@<TRIPOS>BOND
     1     7     8    1
     2     8    13   ar
     3     9    10   ar
     4    10    14    1
     5    11    12   ar
     6     1    12    1
     7     1     2    1
     8     2     3    1
     9     3     4    1
    10     4     6    1
    11     5     6    1
    12     5     1    1
    13    22     6    1
    14    22    23    1
    15    23    24   am
    16    28    29   ar
    17    30    31   ar
    18    30    33    1
    19    32    27   ar
    20    17    20   ar
    21    18    21   ar
    22    19    16   ar
    23    24    27    1
    24    14    16    1
    25     8     9   ar
    26    10    11   ar
    27    12    13   ar
    28    23    25    2
    29    27    28   ar
    30    29    30   ar
    31    31    32   ar
    32    16    20   ar
    33    17    18   ar
    34    19    21   ar
    35    24    26    1
    36    14    15    1
@<TRIPOS>MOLECULE
MolPort-020-292-455 MCULE-2646133063 PubChem-110264923
 33 36 0 0 0
SMALL
GASTEIGER

@<TRIPOS>ATOM
      1 C          10.9408   41.4739    9.9865 C.3     1  UNL1        0.0563
      2 C          10.9450   42.8612    9.3597 C.3     1  UNL1        0.0087
      3 C           9.5362   43.4306    9.3853 C.3     1  UNL1        0.0178
      4 C           9.0165   43.4612   10.8257 C.3     1  UNL1        0.0725
      5 C          10.3778   41.5392   11.4121 C.3     1  UNL1        0.0784
      6 N           9.0349   42.1339   11.4608 N.3     1  UNL1       -0.2647
      7 C          14.2342   38.3127   11.8831 C.3     1  UNL1        0.0521
      8 C          13.9022   39.3757   10.8994 C.ar    1  UNL1        0.0602
      9 C          14.8706   39.8171    9.9964 C.ar    1  UNL1        0.0294
     10 C          14.5500   40.8195    9.0720 C.ar    1  UNL1        0.0518
     11 C          13.2613   41.3588    9.0735 C.ar    1  UNL1        0.0294
     12 C          12.3162   40.8938    9.9915 C.ar    1  UNL1        0.0608
     13 N          12.6554   39.9175   10.8794 N.ar    1  UNL1       -0.2539
     14 N          15.5027   41.3133    8.1199 N.pl3   1  UNL1       -0.2966
     15 H          16.3226   40.7803    8.0059 H       1  UNL1        0.1537
     16 C          15.3956   42.4954    7.3155 C.ar    1  UNL1        0.1516
     17 C          14.2879   43.7824    5.6589 C.ar    1  UNL1        0.1210
     18 C          15.2445   44.7887    5.7998 C.ar    1  UNL1        0.1196
     19 C          16.3510   43.5047    7.4537 C.ar    1  UNL1        0.1332
     20 N          14.3843   42.6598    6.4186 N.ar    1  UNL1       -0.2258
     21 N          16.2552   44.6278    6.6940 N.ar    1  UNL1       -0.2378
     22 C           8.0755   41.2447   10.8097 C.3     1  UNL1        0.1587
     23 C           8.2615   41.2805    9.3319 C.2     1  UNL1        0.2425
     24 N           8.9857   40.2247    8.6862 N.am    1  UNL1       -0.2828
     25 O           7.7859   42.2438    8.6753 O.2     1  UNL1       -0.2733
     26 H           9.3419   39.5143    9.2674 H       1  UNL1        0.1549
     27 C           9.2448   40.0962    7.2818 C.ar    1  UNL1        0.0505
     28 C           8.4068   39.3525    6.4361 C.ar    1  UNL1        0.0170
     29 C           8.6921   39.2483    5.0717 C.ar    1  UNL1        0.0309
     30 C           9.8173   39.8864    4.5433 C.ar    1  UNL1        0.1402
     31 C          10.6565   40.6280    5.3793 C.ar    1  UNL1        0.0309
     32 C          10.3700   40.7314    6.7439 C.ar    1  UNL1        0.0170
     33 F          10.0947   39.7862    3.2213 F       1  UNL1       -0.2042
@<TRIPOS>BOND
     1     7     8    1
     2     8    13   ar
     3     9    10   ar
     4    10    14    1
     5    11    12   ar
     6     1    12    1
     7     1     2    1
     8     2     3    1
     9     3     4    1
    10     4     6    1
    11     5     6    1
    12     5     1    1
    13    22     6    1
    14    22    23    1
    15    23    24   am
    16    28    29   ar
    17    30    31   ar
    18    30    33    1
    19    32    27   ar
    20    17    20   ar
    21    18    21   ar
    22    19    16   ar
    23    24    27    1
    24    14    16    1
    25     8     9   ar
    26    10    11   ar
    27    12    13   ar
    28    23    25    2
    29    27    28   ar
    30    29    30   ar
    31    31    32   ar
    32    16    20   ar
    33    17    18   ar
    34    19    21   ar
    35    24    26    1
    36    14    15    1
@<TRIPOS>MOLECULE
MolPort-020-292-455 MCULE-2646133063 PubChem-110264923
 33 36 0 0 0
SMALL
GASTEIGER

@<TRIPOS>ATOM
      1 C          10.3941   41.9291    9.8636 C.3     1  UNL1        0.0563
      2 C          10.0911   42.4152   11.2742 C.3     1  UNL1        0.0087
      3 C           8.6927   43.0087   11.3137 C.3     1  UNL1        0.0178
      4 C           7.6744   41.9661   10.8428 C.3     1  UNL1        0.0725
      5 C           9.3321   40.9176    9.4132 C.3     1  UNL1        0.0784
      6 N           7.9685   41.4594    9.4929 N.3     1  UNL1       -0.2647
      7 C          13.8523   38.9706   11.7936 C.3     1  UNL1        0.0521
      8 C          13.4218   39.9029   10.7197 C.ar    1  UNL1        0.0602
      9 C          14.2880   40.2007    9.6664 C.ar    1  UNL1        0.0294
     10 C          13.8749   41.0805    8.6576 C.ar    1  UNL1        0.0518
     11 C          12.5985   41.6439    8.7275 C.ar    1  UNL1        0.0294
     12 C          11.7570   41.3242    9.7961 C.ar    1  UNL1        0.0608
     13 N          12.1847   40.4651   10.7635 N.ar    1  UNL1       -0.2539
     14 N          14.7204   41.4241    7.5508 N.pl3   1  UNL1       -0.2966
     15 H          15.2594   40.6937    7.1697 H       1  UNL1        0.1537
     16 C          14.8690   42.7113    6.9368 C.ar    1  UNL1        0.1516
     17 C          16.1285   44.6790    6.5254 C.ar    1  UNL1        0.1210
     18 C          15.0944   45.1759    5.7311 C.ar    1  UNL1        0.1196
     19 C          13.8361   43.2120    6.1411 C.ar    1  UNL1        0.1332
     20 N          15.9934   43.4595    7.1098 N.ar    1  UNL1       -0.2258
     21 N          13.9708   44.4317    5.5563 N.ar    1  UNL1       -0.2378
     22 C           7.7982   42.5202    8.5027 C.3     1  UNL1        0.1587
     23 C           8.1075   42.0059    7.1390 C.2     1  UNL1        0.2425
     24 N           8.9864   40.8826    6.9912 N.am    1  UNL1       -0.2828
     25 O           7.5973   42.5731    6.1374 O.2     1  UNL1       -0.2733
     26 H           9.3596   40.5024    7.8192 H       1  UNL1        0.1549
     27 C           9.3782   40.2556    5.7626 C.ar    1  UNL1        0.0505
     28 C          10.5019   40.6803    5.0365 C.ar    1  UNL1        0.0170
     29 C          10.8525   40.0457    3.8413 C.ar    1  UNL1        0.0309
     30 C          10.0819   38.9827    3.3635 C.ar    1  UNL1        0.1402
     31 C           8.9613   38.5549    4.0807 C.ar    1  UNL1        0.0309
     32 C           8.6118   39.1905    5.2761 C.ar    1  UNL1        0.0170
     33 F          10.4206   38.3670    2.2056 F       1  UNL1       -0.2042
@<TRIPOS>BOND
     1     7     8    1
     2     8    13   ar
     3     9    10   ar
     4    10    14    1
     5    11    12   ar
     6     1    12    1
     7     1     2    1
     8     2     3    1
     9     3     4    1
    10     4     6    1
    11     5     6    1
    12     5     1    1
    13    22     6    1
    14    22    23    1
    15    23    24   am
    16    28    29   ar
    17    30    31   ar
    18    30    33    1
    19    32    27   ar
    20    17    20   ar
    21    18    21   ar
    22    19    16   ar
    23    24    27    1
    24    14    16    1
    25     8     9   ar
    26    10    11   ar
    27    12    13   ar
    28    23    25    2
    29    27    28   ar
    30    29    30   ar
    31    31    32   ar
    32    16    20   ar
    33    17    18   ar
    34    19    21   ar
    35    24    26    1
    36    14    15    1
@<TRIPOS>MOLECULE
MolPort-020-292-455 MCULE-2646133063 PubChem-110264923
 33 36 0 0 0
SMALL
GASTEIGER

@<TRIPOS>ATOM
      1 C          13.8444   38.4854    8.9780 C.3     1  UNL1        0.0563
      2 C          14.1515   39.5673   10.0041 C.3     1  UNL1        0.0087
      3 C          13.0279   40.5905   10.0100 C.3     1  UNL1        0.0178
      4 C          11.6954   39.8942   10.3024 C.3     1  UNL1        0.0725
      5 C          12.4862   37.8394    9.2809 C.3     1  UNL1        0.0784
      6 N          11.3955   38.8223    9.3398 N.3     1  UNL1       -0.2647
      7 C          18.4718   37.1296   10.0669 C.3     1  UNL1        0.0521
      8 C          17.1466   36.7982    9.4822 C.ar    1  UNL1        0.0602
      9 C          16.9250   35.5365    8.9279 C.ar    1  UNL1        0.0294
     10 C          15.6730   35.2315    8.3787 C.ar    1  UNL1        0.0518
     11 C          14.6677   36.2014    8.3976 C.ar    1  UNL1        0.0294
     12 C          14.9237   37.4544    8.9603 C.ar    1  UNL1        0.0608
     13 N          16.1508   37.7238    9.4877 N.ar    1  UNL1       -0.2539
     14 N          15.3860   33.9527    7.7954 N.pl3   1  UNL1       -0.2966
     15 H          14.9630   33.9631    6.9065 H       1  UNL1        0.1537
     16 C          15.6458   32.6609    8.3611 C.ar    1  UNL1        0.1516
     17 C          17.1421   31.0531    9.2575 C.ar    1  UNL1        0.1210
     18 C          16.0803   30.1667    9.4423 C.ar    1  UNL1        0.1196
     19 C          14.5856   31.7711    8.5476 C.ar    1  UNL1        0.1332
     20 N          16.9019   32.2788    8.7219 N.ar    1  UNL1       -0.2258
     21 N          14.8252   30.5450    9.0833 N.ar    1  UNL1       -0.2378
     22 C          11.1611   39.3825    8.0109 C.3     1  UNL1        0.1587
     23 C          11.8412   40.7018    7.8813 C.2     1  UNL1        0.2425
     24 N          13.0666   40.7943    7.1425 N.am    1  UNL1       -0.2828
     25 O          11.3313   41.7132    8.4312 O.2     1  UNL1       -0.2733
     26 H          13.4125   39.9579    6.7551 H       1  UNL1        0.1549
     27 C          13.8405   41.9787    6.9095 C.ar    1  UNL1        0.0505
     28 C          15.1029   42.1687    7.4933 C.ar    1  UNL1        0.0170
     29 C          15.8281   43.3375    7.2443 C.ar    1  UNL1        0.0309
     30 C          15.2962   44.3246    6.4106 C.ar    1  UNL1        0.1402
     31 C          14.0397   44.1426    5.8265 C.ar    1  UNL1        0.0309
     32 C          13.3154   42.9730    6.0763 C.ar    1  UNL1        0.0170
     33 F          15.9980   45.4575    6.1686 F       1  UNL1       -0.2042
@<TRIPOS>BOND
     1     7     8    1
     2     8    13   ar
     3     9    10   ar
     4    10    14    1
     5    11    12   ar
     6     1    12    1
     7     1     2    1
     8     2     3    1
     9     3     4    1
    10     4     6    1
    11     5     6    1
    12     5     1    1
    13    22     6    1
    14    22    23    1
    15    23    24   am
    16    28    29   ar
    17    30    31   ar
    18    30    33    1
    19    32    27   ar
    20    17    20   ar
    21    18    21   ar
    22    19    16   ar
    23    24    27    1
    24    14    16    1
    25     8     9   ar
    26    10    11   ar
    27    12    13   ar
    28    23    25    2
    29    27    28   ar
    30    29    30   ar
    31    31    32   ar
    32    16    20   ar
    33    17    18   ar
    34    19    21   ar
    35    24    26    1
    36    14    15    1
@<TRIPOS>MOLECULE
MolPort-020-292-455 MCULE-2646133063 PubChem-110264923
 33 36 0 0 0
SMALL
GASTEIGER

@<TRIPOS>ATOM
      1 C          12.7857   41.0433    8.0236 C.3     1  UNL1        0.0563
      2 C          12.4208   40.3220    6.7335 C.3     1  UNL1        0.0087
      3 C          11.0152   39.7567    6.8519 C.3     1  UNL1        0.0178
      4 C          10.0287   40.8845    7.1689 C.3     1  UNL1        0.0725
      5 C          11.7544   42.1377    8.3276 C.3     1  UNL1        0.0784
      6 N          10.3825   41.6156    8.3960 N.3     1  UNL1       -0.2647
      7 C          15.9311   44.2575    5.9714 C.3     1  UNL1        0.0521
      8 C          15.6723   43.1690    6.9490 C.ar    1  UNL1        0.0602
      9 C          16.7046   42.7059    7.7663 C.ar    1  UNL1        0.0294
     10 C          16.4528   41.6794    8.6857 C.ar    1  UNL1        0.0518
     11 C          15.1673   41.1384    8.7654 C.ar    1  UNL1        0.0294
     12 C          14.1571   41.6255    7.9320 C.ar    1  UNL1        0.0608
     13 N          14.4302   42.6249    7.0470 N.ar    1  UNL1       -0.2539
     14 N          17.4731   41.1627    9.5517 N.pl3   1  UNL1       -0.2966
     15 H          18.1050   41.8201    9.9228 H       1  UNL1        0.1537
     16 C          17.6763   39.7969    9.9379 C.ar    1  UNL1        0.1516
     17 C          18.8899   37.7630    9.8033 C.ar    1  UNL1        0.1210
     18 C          18.0137   37.1786   10.7188 C.ar    1  UNL1        0.1196
     19 C          16.8015   39.2085   10.8539 C.ar    1  UNL1        0.1332
     20 N          18.7023   39.0573    9.4336 N.ar    1  UNL1       -0.2258
     21 N          16.9886   37.9140   11.2240 N.ar    1  UNL1       -0.2378
     22 C          10.2398   40.7491    9.5638 C.3     1  UNL1        0.1587
     23 C          10.7842   39.3940    9.2687 C.2     1  UNL1        0.2425
     24 N          12.0331   38.9938    9.8484 N.am    1  UNL1       -0.2828
     25 O          10.1408   38.6253    8.5067 O.2     1  UNL1       -0.2733
     26 H          12.4861   39.6548   10.4203 H       1  UNL1        0.1549
     27 C          12.6907   37.7304    9.6814 C.ar    1  UNL1        0.0505
     28 C          12.2478   36.5697   10.3348 C.ar    1  UNL1        0.0170
     29 C          12.9152   35.3556   10.1490 C.ar    1  UNL1        0.0309
     30 C          14.0303   35.2936    9.3093 C.ar    1  UNL1        0.1402
     31 C          14.4773   36.4454    8.6561 C.ar    1  UNL1        0.0309
     32 C          13.8088   37.6591    8.8428 C.ar    1  UNL1        0.0170
     33 F          14.6778   34.1178    9.1285 F       1  UNL1       -0.2042
@<TRIPOS>BOND
     1     7     8    1
     2     8    13   ar
     3     9    10   ar
     4    10    14    1
     5    11    12   ar
     6     1    12    1
     7     1     2    1
     8     2     3    1
     9     3     4    1
    10     4     6    1
    11     5     6    1
    12     5     1    1
    13    22     6    1
    14    22    23    1
    15    23    24   am
    16    28    29   ar
    17    30    31   ar
    18    30    33    1
    19    32    27   ar
    20    17    20   ar
    21    18    21   ar
    22    19    16   ar
    23    24    27    1
    24    14    16    1
    25     8     9   ar
    26    10    11   ar
    27    12    13   ar
    28    23    25    2
    29    27    28   ar
    30    29    30   ar
    31    31    32   ar
    32    16    20   ar
    33    17    18   ar
    34    19    21   ar
    35    24    26    1
    36    14    15    1
@<TRIPOS>MOLECULE
MolPort-020-292-455 MCULE-2646133063 PubChem-110264923
 33 36 0 0 0
SMALL
GASTEIGER

@<TRIPOS>ATOM
      1 C          11.6588   40.1784    7.8655 C.3     1  UNL1        0.0563
      2 C          12.0295   40.6321    6.4603 C.3     1  UNL1        0.0087
      3 C          10.7624   40.8499    5.6500 C.3     1  UNL1        0.0178
      4 C           9.8651   41.8703    6.3566 C.3     1  UNL1        0.0725
      5 C          10.7293   41.2054    8.5250 C.3     1  UNL1        0.0784
      6 N           9.5218   41.4653    7.7291 N.3     1  UNL1       -0.2647
      7 C          13.9247   37.9649   11.6606 C.3     1  UNL1        0.0521
      8 C          13.9772   38.9101   10.5153 C.ar    1  UNL1        0.0602
      9 C          15.1618   39.5892   10.2257 C.ar    1  UNL1        0.0294
     10 C          15.2036   40.4785    9.1442 C.ar    1  UNL1        0.0518
     11 C          14.0532   40.6678    8.3748 C.ar    1  UNL1        0.0294
     12 C          12.8840   39.9719    8.6928 C.ar    1  UNL1        0.0608
     13 N          12.8718   39.1127    9.7503 N.ar    1  UNL1       -0.2539
     14 N          16.3916   41.2043    8.7979 N.pl3   1  UNL1       -0.2966
     15 H          17.2368   40.8602    9.1673 H       1  UNL1        0.1537
     16 C          16.4869   42.3743    7.9745 C.ar    1  UNL1        0.1516
     17 C          15.5086   43.9656    6.5124 C.ar    1  UNL1        0.1210
     18 C          16.7337   44.6258    6.4096 C.ar    1  UNL1        0.1196
     19 C          17.7114   43.0377    7.8693 C.ar    1  UNL1        0.1332
     20 N          15.4122   42.8562    7.2914 N.ar    1  UNL1       -0.2258
     21 N          17.8084   44.1474    7.0903 N.ar    1  UNL1       -0.2378
     22 C           8.6744   40.2751    7.7115 C.3     1  UNL1        0.1587
     23 C           7.2758   40.6337    8.0794 C.2     1  UNL1        0.2425
     24 N           6.9842   41.0533    9.4192 N.am    1  UNL1       -0.2828
     25 O           6.3708   40.5537    7.2077 O.2     1  UNL1       -0.2733
     26 H           7.7405   41.0753   10.0491 H       1  UNL1        0.1549
     27 C           5.7053   41.4442    9.9365 C.ar    1  UNL1        0.0505
     28 C           4.9704   42.5030    9.3804 C.ar    1  UNL1        0.0170
     29 C           3.7272   42.8568    9.9125 C.ar    1  UNL1        0.0309
     30 C           3.2103   42.1551   11.0046 C.ar    1  UNL1        0.1402
     31 C           3.9367   41.1002   11.5640 C.ar    1  UNL1        0.0309
     32 C           5.1801   40.7474   11.0307 C.ar    1  UNL1        0.0170
     33 F           2.0058   42.4969   11.5211 F       1  UNL1       -0.2042
@<TRIPOS>BOND
     1     7     8    1
     2     8    13   ar
     3     9    10   ar
     4    10    14    1
     5    11    12   ar
     6     1    12    1
     7     1     2    1
     8     2     3    1
     9     3     4    1
    10     4     6    1
    11     5     6    1
    12     5     1    1
    13    22     6    1
    14    22    23    1
    15    23    24   am
    16    28    29   ar
    17    30    31   ar
    18    30    33    1
    19    32    27   ar
    20    17    20   ar
    21    18    21   ar
    22    19    16   ar
    23    24    27    1
    24    14    16    1
    25     8     9   ar
    26    10    11   ar
    27    12    13   ar
    28    23    25    2
    29    27    28   ar
    30    29    30   ar
    31    31    32   ar
    32    16    20   ar
    33    17    18   ar
    34    19    21   ar
    35    24    26    1
    36    14    15    1
