@<TRIPOS>MOLECULE
MolPort-000-056-083 1324411 MCULE-3750092769 PubChem-1428095 ZINC000001324411 ZINC01324411
 31 33 0 0 0
SMALL
GASTEIGER

@<TRIPOS>ATOM
      1 C          11.7377   40.5859    7.7048 C.ar    1  UNL1        0.1535
      2 C          13.1389   40.5128    7.6919 C.ar    1  UNL1        0.0559
      3 C          13.8654   40.3294    8.8707 C.ar    1  UNL1        0.0881
      4 C          13.1800   40.1826   10.0935 C.ar    1  UNL1        0.1535
      5 C          11.7790   40.2551   10.1061 C.ar    1  UNL1        0.0559
      6 C          11.0524   40.4358    8.9270 C.ar    1  UNL1        0.0881
      7 C          16.1931   41.3491    8.5542 C.2     1  UNL1        0.2497
      8 O          17.3422   41.3010    9.0683 O.2     1  UNL1       -0.2698
      9 N          15.2949   40.2536    8.7818 N.am    1  UNL1       -0.2779
     10 H          15.6996   39.3624    8.8874 H       1  UNL1        0.1553
     11 C          15.8339   42.4953    7.6896 C.ar    1  UNL1        0.0568
     12 C          16.7016   43.5898    7.5815 C.ar    1  UNL1        0.0252
     13 C          16.3629   44.6611    6.7521 C.ar    1  UNL1        0.0990
     14 C          14.3432   43.5845    6.1270 C.ar    1  UNL1        0.0990
     15 C          14.6472   42.4947    6.9450 C.ar    1  UNL1        0.0252
     16 N          15.1993   44.6378    6.0490 N.ar    1  UNL1       -0.2423
     17 C           8.8694   41.7146    9.2283 C.2     1  UNL1        0.2496
     18 O           9.4139   42.8416    9.0700 O.2     1  UNL1       -0.2698
     19 N           9.6241   40.5141    9.0167 N.am    1  UNL1       -0.2779
     20 H           9.1193   39.6738    8.9253 H       1  UNL1        0.1553
     21 C           7.4417   41.6319    9.5817 C.ar    1  UNL1        0.0537
     22 C           7.0360   41.7366   10.9203 C.ar    1  UNL1        0.0050
     23 C           5.6813   41.6604   11.2565 C.ar    1  UNL1        0.0068
     24 C           4.7225   41.4794   10.2562 C.ar    1  UNL1        0.0346
     25 C           5.1175   41.3748    8.9199 C.ar    1  UNL1        0.0068
     26 C           6.4722   41.4510    8.5839 C.ar    1  UNL1        0.0050
     27 BR          2.8760   41.3757   10.7144 Br      1  UNL1       -0.0490
     28 C          10.8746   39.8755    5.4932 C.3     1  UNL1        0.2525
     29 O          11.0258   40.8393    6.5267 O.3     1  UNL1       -0.4701
     30 C          13.9869   38.6575   11.8721 C.3     1  UNL1        0.2525
     31 O          13.8932   39.9430   11.2738 O.3     1  UNL1       -0.4701
@<TRIPOS>BOND
     1    28    29    1
     2     1    29    1
     3     2     3   ar
     4     3     9    1
     5     7    11    1
     6    12    13   ar
     7    14    16   ar
     8    15    11   ar
     9     4    31    1
    10     4     5   ar
    11    30    31    1
    12     6    19    1
    13     6     1   ar
    14    17    21    1
    15    22    23   ar
    16    24    27    1
    17    24    25   ar
    18    26    21   ar
    19     9     7   am
    20    19    17   am
    21     1     2   ar
    22     3     4   ar
    23     7     8    2
    24    11    12   ar
    25    13    16   ar
    26    14    15   ar
    27     5     6   ar
    28    17    18    2
    29    21    22   ar
    30    23    24   ar
    31    25    26   ar
    32     9    10    1
    33    19    20    1
@<TRIPOS>MOLECULE
MolPort-000-056-083 1324411 MCULE-3750092769 PubChem-1428095 ZINC000001324411 ZINC01324411
 31 33 0 0 0
SMALL
GASTEIGER

@<TRIPOS>ATOM
      1 C          10.9318   41.2385   10.1287 C.ar    1  UNL1        0.1535
      2 C          12.2999   41.0718    9.8651 C.ar    1  UNL1        0.0559
      3 C          12.7411   40.4301    8.7056 C.ar    1  UNL1        0.0881
      4 C          11.7981   39.9688    7.7651 C.ar    1  UNL1        0.1535
      5 C          10.4303   40.1361    8.0285 C.ar    1  UNL1        0.0559
      6 C           9.9891   40.7800    9.1867 C.ar    1  UNL1        0.0881
      7 C          15.0566   41.3550    8.1215 C.2     1  UNL1        0.2497
      8 O          16.2458   41.3018    8.5342 O.2     1  UNL1       -0.2698
      9 N          14.1544   40.3041    8.4959 N.am    1  UNL1       -0.2779
     10 H          14.5436   39.4085    8.6211 H       1  UNL1        0.1553
     11 C          14.6510   42.4577    7.2216 C.ar    1  UNL1        0.0568
     12 C          15.4391   43.6123    7.1297 C.ar    1  UNL1        0.0252
     13 C          15.0579   44.6425    6.2672 C.ar    1  UNL1        0.0990
     14 C          13.1522   43.4084    5.5785 C.ar    1  UNL1        0.0990
     15 C          13.5006   42.3570    6.4284 C.ar    1  UNL1        0.0252
     16 N          13.9305   44.5214    5.5168 N.ar    1  UNL1       -0.2423
     17 C           7.8531   42.1386    9.4748 C.2     1  UNL1        0.2496
     18 O           8.3860   43.2113    9.0787 O.2     1  UNL1       -0.2698
     19 N           8.5768   40.9034    9.3971 N.am    1  UNL1       -0.2779
     20 H           8.0608   40.0709    9.4965 H       1  UNL1        0.1553
     21 C           6.4660   42.1472    9.9710 C.ar    1  UNL1        0.0537
     22 C           6.1160   41.4052   11.1087 C.ar    1  UNL1        0.0050
     23 C           4.8005   41.4144   11.5815 C.ar    1  UNL1        0.0068
     24 C           3.8257   42.1661   10.9202 C.ar    1  UNL1        0.0346
     25 C           4.1657   42.9088    9.7864 C.ar    1  UNL1        0.0068
     26 C           5.4811   42.8996    9.3137 C.ar    1  UNL1        0.0050
     27 BR          2.0329   42.1787   11.5648 Br      1  UNL1       -0.0490
     28 C          10.2047   41.0621   12.4911 C.3     1  UNL1        0.2525
     29 O          10.5019   41.8208   11.3266 O.3     1  UNL1       -0.4701
     30 C          11.4487   39.3730    5.3853 C.3     1  UNL1        0.2525
     31 O          12.2283   39.3738    6.5734 O.3     1  UNL1       -0.4701
@<TRIPOS>BOND
     1    28    29    1
     2     1    29    1
     3     2     3   ar
     4     3     9    1
     5     7    11    1
     6    12    13   ar
     7    14    16   ar
     8    15    11   ar
     9     4    31    1
    10     4     5   ar
    11    30    31    1
    12     6    19    1
    13     6     1   ar
    14    17    21    1
    15    22    23   ar
    16    24    27    1
    17    24    25   ar
    18    26    21   ar
    19     9     7   am
    20    19    17   am
    21     1     2   ar
    22     3     4   ar
    23     7     8    2
    24    11    12   ar
    25    13    16   ar
    26    14    15   ar
    27     5     6   ar
    28    17    18    2
    29    21    22   ar
    30    23    24   ar
    31    25    26   ar
    32     9    10    1
    33    19    20    1
@<TRIPOS>MOLECULE
MolPort-000-056-083 1324411 MCULE-3750092769 PubChem-1428095 ZINC000001324411 ZINC01324411
 31 33 0 0 0
SMALL
GASTEIGER

@<TRIPOS>ATOM
      1 C          10.1150   41.5470    8.6717 C.ar    1  UNL1        0.1535
      2 C          10.4504   41.4639    7.3117 C.ar    1  UNL1        0.0559
      3 C           9.5480   40.9593    6.3727 C.ar    1  UNL1        0.0881
      4 C           8.2640   40.5550    6.7905 C.ar    1  UNL1        0.1535
      5 C           7.9285   40.6388    8.1501 C.ar    1  UNL1        0.0559
      6 C           8.8300   41.1458    9.0888 C.ar    1  UNL1        0.0881
      7 C          11.3029   40.9086    4.5083 C.2     1  UNL1        0.2497
      8 O          11.5518   40.2919    3.4383 O.2     1  UNL1       -0.2698
      9 N           9.9542   40.9131    4.9979 N.am    1  UNL1       -0.2779
     10 H           9.2372   40.8814    4.3240 H       1  UNL1        0.1553
     11 C          12.3887   41.6524    5.1850 C.ar    1  UNL1        0.0568
     12 C          13.0860   41.0618    6.2468 C.ar    1  UNL1        0.0252
     13 C          14.1193   41.7640    6.8709 C.ar    1  UNL1        0.0990
     14 C          13.7968   43.6060    5.4107 C.ar    1  UNL1        0.0990
     15 C          12.7586   42.9355    4.7614 C.ar    1  UNL1        0.0252
     16 N          14.4498   43.0123    6.4449 N.ar    1  UNL1       -0.2423
     17 C           8.7649   42.2220   11.3973 C.2     1  UNL1        0.2496
     18 O           9.2242   43.3226   10.9859 O.2     1  UNL1       -0.2698
     19 N           8.4245   41.1893   10.4628 N.am    1  UNL1       -0.2779
     20 H           7.8660   40.4486   10.7923 H       1  UNL1        0.1553
     21 C           8.5299   42.0163   12.8369 C.ar    1  UNL1        0.0537
     22 C           8.1191   43.0848   13.6474 C.ar    1  UNL1        0.0050
     23 C           7.8938   42.8902   15.0132 C.ar    1  UNL1        0.0068
     24 C           8.0773   41.6254   15.5782 C.ar    1  UNL1        0.0346
     25 C           8.4858   40.5550   14.7781 C.ar    1  UNL1        0.0068
     26 C           8.7110   40.7497   13.4124 C.ar    1  UNL1        0.0050
     27 BR          7.7702   41.3602   17.4397 Br      1  UNL1       -0.0490
     28 C          12.0566   42.9486    9.3091 C.3     1  UNL1        0.2525
     29 O          11.0526   41.9893    9.6119 O.3     1  UNL1       -0.4701
     30 C           5.9784   39.8160    6.1817 C.3     1  UNL1        0.2525
     31 O           7.3312   40.0996    5.8516 O.3     1  UNL1       -0.4701
@<TRIPOS>BOND
     1    28    29    1
     2     1    29    1
     3     2     3   ar
     4     3     9    1
     5     7    11    1
     6    12    13   ar
     7    14    16   ar
     8    15    11   ar
     9     4    31    1
    10     4     5   ar
    11    30    31    1
    12     6    19    1
    13     6     1   ar
    14    17    21    1
    15    22    23   ar
    16    24    27    1
    17    24    25   ar
    18    26    21   ar
    19     9     7   am
    20    19    17   am
    21     1     2   ar
    22     3     4   ar
    23     7     8    2
    24    11    12   ar
    25    13    16   ar
    26    14    15   ar
    27     5     6   ar
    28    17    18    2
    29    21    22   ar
    30    23    24   ar
    31    25    26   ar
    32     9    10    1
    33    19    20    1
@<TRIPOS>MOLECULE
MolPort-000-056-083 1324411 MCULE-3750092769 PubChem-1428095 ZINC000001324411 ZINC01324411
 31 33 0 0 0
SMALL
GASTEIGER

@<TRIPOS>ATOM
      1 C          10.2318   41.7212    9.2879 C.ar    1  UNL1        0.1535
      2 C           8.8768   42.0287    9.4837 C.ar    1  UNL1        0.0559
      3 C           8.2705   41.8672   10.7316 C.ar    1  UNL1        0.0881
      4 C           9.0389   41.4178   11.8244 C.ar    1  UNL1        0.1535
      5 C          10.3938   41.1111   11.6286 C.ar    1  UNL1        0.0559
      6 C          11.0008   41.2750   10.3813 C.ar    1  UNL1        0.0881
      7 C           5.8633   42.0216    9.8717 C.2     1  UNL1        0.2497
      8 O           4.6871   41.7880   10.2580 O.2     1  UNL1       -0.2698
      9 N           6.8841   42.2109   10.8620 N.am    1  UNL1       -0.2779
     10 H           6.6056   42.6167   11.7147 H       1  UNL1        0.1553
     11 C           6.1372   42.1528    8.4233 C.ar    1  UNL1        0.0568
     12 C           6.2070   43.4227    7.8361 C.ar    1  UNL1        0.0252
     13 C           6.4807   43.5394    6.4716 C.ar    1  UNL1        0.0990
     14 C           6.6320   41.1807    6.2644 C.ar    1  UNL1        0.0990
     15 C           6.3616   41.0235    7.6251 C.ar    1  UNL1        0.0252
     16 N           6.6841   42.4251    5.7193 N.ar    1  UNL1       -0.2423
     17 C          12.9175   39.5984   10.2989 C.2     1  UNL1        0.2496
     18 O          12.1497   38.6044   10.1807 O.2     1  UNL1       -0.2698
     19 N          12.3854   40.9289   10.2510 N.am    1  UNL1       -0.2779
     20 H          13.0243   41.6660   10.1174 H       1  UNL1        0.1553
     21 C          14.3698   39.3927   10.4355 C.ar    1  UNL1        0.0537
     22 C          15.2650   40.0954    9.6157 C.ar    1  UNL1        0.0050
     23 C          16.6433   39.9025    9.7459 C.ar    1  UNL1        0.0068
     24 C          17.1363   39.0056   10.6973 C.ar    1  UNL1        0.0346
     25 C          16.2517   38.3018   11.5188 C.ar    1  UNL1        0.0068
     26 C          14.8734   38.4947   11.3885 C.ar    1  UNL1        0.0050
     27 BR         19.0150   38.7428   10.8749 Br      1  UNL1       -0.0490
     28 C          10.1890   41.3117    6.8443 C.3     1  UNL1        0.2525
     29 O          10.8095   41.8213    8.0170 O.3     1  UNL1       -0.4701
     30 C           9.2170   41.0952   14.2749 C.3     1  UNL1        0.2525
     31 O           8.4572   41.3046   13.0924 O.3     1  UNL1       -0.4701
@<TRIPOS>BOND
     1    28    29    1
     2     1    29    1
     3     2     3   ar
     4     3     9    1
     5     7    11    1
     6    12    13   ar
     7    14    16   ar
     8    15    11   ar
     9     4    31    1
    10     4     5   ar
    11    30    31    1
    12     6    19    1
    13     6     1   ar
    14    17    21    1
    15    22    23   ar
    16    24    27    1
    17    24    25   ar
    18    26    21   ar
    19     9     7   am
    20    19    17   am
    21     1     2   ar
    22     3     4   ar
    23     7     8    2
    24    11    12   ar
    25    13    16   ar
    26    14    15   ar
    27     5     6   ar
    28    17    18    2
    29    21    22   ar
    30    23    24   ar
    31    25    26   ar
    32     9    10    1
    33    19    20    1
@<TRIPOS>MOLECULE
MolPort-000-056-083 1324411 MCULE-3750092769 PubChem-1428095 ZINC000001324411 ZINC01324411
 31 33 0 0 0
SMALL
GASTEIGER

@<TRIPOS>ATOM
      1 C          11.4283   40.6549   10.9098 C.ar    1  UNL1        0.1535
      2 C          12.7185   40.1158   11.0271 C.ar    1  UNL1        0.0559
      3 C          13.6794   40.3141   10.0331 C.ar    1  UNL1        0.0881
      4 C          13.3607   41.0967    8.9049 C.ar    1  UNL1        0.1535
      5 C          12.0710   41.6362    8.7881 C.ar    1  UNL1        0.0559
      6 C          11.1108   41.4401    9.7834 C.ar    1  UNL1        0.0881
      7 C          15.3870   38.4126    9.8702 C.2     1  UNL1        0.2497
      8 O          16.5834   38.2212    9.5250 O.2     1  UNL1       -0.2698
      9 N          14.9810   39.7426   10.2239 N.am    1  UNL1       -0.2779
     10 H          15.6628   40.3194   10.6382 H       1  UNL1        0.1553
     11 C          14.4650   37.2583    9.9579 C.ar    1  UNL1        0.0568
     12 C          13.3670   37.3037   10.8267 C.ar    1  UNL1        0.0252
     13 C          12.4927   36.2166   10.8933 C.ar    1  UNL1        0.0990
     14 C          13.7558   35.0555    9.2545 C.ar    1  UNL1        0.0990
     15 C          14.6512   36.1224    9.1594 C.ar    1  UNL1        0.0252
     16 N          12.7042   35.1229   10.1136 N.ar    1  UNL1       -0.2423
     17 C           8.8539   41.5849    8.6102 C.2     1  UNL1        0.2496
     18 O           8.9965   40.4768    8.0242 O.2     1  UNL1       -0.2698
     19 N           9.8096   42.0092    9.5910 N.am    1  UNL1       -0.2779
     20 H           9.5506   42.7533   10.1813 H       1  UNL1        0.1553
     21 C           7.6756   42.4213    8.3230 C.ar    1  UNL1        0.0537
     22 C           6.7281   42.6782    9.3247 C.ar    1  UNL1        0.0050
     23 C           5.6108   43.4734    9.0538 C.ar    1  UNL1        0.0068
     24 C           5.4334   44.0178    7.7792 C.ar    1  UNL1        0.0346
     25 C           6.3727   43.7677    6.7753 C.ar    1  UNL1        0.0068
     26 C           7.4899   42.9724    7.0463 C.ar    1  UNL1        0.0050
     27 BR          3.9107   45.1018    7.4100 Br      1  UNL1       -0.0490
     28 C           9.7835   41.4160   12.5998 C.3     1  UNL1        0.2525
     29 O          10.4540   40.3908   11.8792 O.3     1  UNL1       -0.4701
     30 C          14.1961   42.3715    6.9510 C.3     1  UNL1        0.2525
     31 O          14.3315   41.3492    7.9287 O.3     1  UNL1       -0.4701
@<TRIPOS>BOND
     1    28    29    1
     2     1    29    1
     3     2     3   ar
     4     3     9    1
     5     7    11    1
     6    12    13   ar
     7    14    16   ar
     8    15    11   ar
     9     4    31    1
    10     4     5   ar
    11    30    31    1
    12     6    19    1
    13     6     1   ar
    14    17    21    1
    15    22    23   ar
    16    24    27    1
    17    24    25   ar
    18    26    21   ar
    19     9     7   am
    20    19    17   am
    21     1     2   ar
    22     3     4   ar
    23     7     8    2
    24    11    12   ar
    25    13    16   ar
    26    14    15   ar
    27     5     6   ar
    28    17    18    2
    29    21    22   ar
    30    23    24   ar
    31    25    26   ar
    32     9    10    1
    33    19    20    1
@<TRIPOS>MOLECULE
MolPort-000-056-083 1324411 MCULE-3750092769 PubChem-1428095 ZINC000001324411 ZINC01324411
 31 33 0 0 0
SMALL
GASTEIGER

@<TRIPOS>ATOM
      1 C           7.4757   40.8740    7.8172 C.ar    1  UNL1        0.1535
      2 C           8.6466   41.1111    7.0811 C.ar    1  UNL1        0.0559
      3 C           9.6811   41.8942    7.5982 C.ar    1  UNL1        0.0881
      4 C           9.5638   42.4312    8.8961 C.ar    1  UNL1        0.1535
      5 C           8.3935   42.1935    9.6322 C.ar    1  UNL1        0.0559
      6 C           7.3600   41.4083    9.1161 C.ar    1  UNL1        0.0881
      7 C          11.9803   41.2020    6.7076 C.2     1  UNL1        0.2497
      8 O          12.6098   41.1360    5.6184 O.2     1  UNL1       -0.2698
      9 N          10.8536   42.0862    6.7947 N.am    1  UNL1       -0.2779
     10 H          10.8888   42.9050    6.2493 H       1  UNL1        0.1553
     11 C          12.4578   40.4184    7.8688 C.ar    1  UNL1        0.0568
     12 C          13.3951   40.9730    8.7499 C.ar    1  UNL1        0.0252
     13 C          13.8300   40.2333    9.8518 C.ar    1  UNL1        0.0990
     14 C          12.4232   38.4243    9.2373 C.ar    1  UNL1        0.0990
     15 C          11.9638   39.1328    8.1254 C.ar    1  UNL1        0.0252
     16 N          13.3407   38.9836   10.0703 N.ar    1  UNL1       -0.2423
     17 C           4.9358   41.8926    9.7325 C.2     1  UNL1        0.2496
     18 O           4.6997   42.5051    8.6551 O.2     1  UNL1       -0.2698
     19 N           6.1876   41.2190    9.9184 N.am    1  UNL1       -0.2779
     20 H           6.2468   40.5727   10.6587 H       1  UNL1        0.1553
     21 C           3.9033   41.8266   10.7812 C.ar    1  UNL1        0.0537
     22 C           3.8054   40.6985   11.6089 C.ar    1  UNL1        0.0050
     23 C           2.8274   40.6357   12.6057 C.ar    1  UNL1        0.0068
     24 C           1.9405   41.7010   12.7822 C.ar    1  UNL1        0.0346
     25 C           2.0312   42.8292   11.9626 C.ar    1  UNL1        0.0068
     26 C           3.0092   42.8918   10.9658 C.ar    1  UNL1        0.0050
     27 BR          0.6077   41.6155   14.1409 Br      1  UNL1       -0.0490
     28 C           6.5468   39.3900    6.0636 C.3     1  UNL1        0.2525
     29 O           6.4182   40.1459    7.2602 O.3     1  UNL1       -0.4701
     30 C          10.5032   43.8786   10.6747 C.3     1  UNL1        0.2525
     31 O          10.6163   43.1712    9.4475 O.3     1  UNL1       -0.4701
@<TRIPOS>BOND
     1    28    29    1
     2     1    29    1
     3     2     3   ar
     4     3     9    1
     5     7    11    1
     6    12    13   ar
     7    14    16   ar
     8    15    11   ar
     9     4    31    1
    10     4     5   ar
    11    30    31    1
    12     6    19    1
    13     6     1   ar
    14    17    21    1
    15    22    23   ar
    16    24    27    1
    17    24    25   ar
    18    26    21   ar
    19     9     7   am
    20    19    17   am
    21     1     2   ar
    22     3     4   ar
    23     7     8    2
    24    11    12   ar
    25    13    16   ar
    26    14    15   ar
    27     5     6   ar
    28    17    18    2
    29    21    22   ar
    30    23    24   ar
    31    25    26   ar
    32     9    10    1
    33    19    20    1
@<TRIPOS>MOLECULE
MolPort-000-056-083 1324411 MCULE-3750092769 PubChem-1428095 ZINC000001324411 ZINC01324411
 31 33 0 0 0
SMALL
GASTEIGER

@<TRIPOS>ATOM
      1 C           9.3290   42.8754    8.7509 C.ar    1  UNL1        0.1535
      2 C           8.0730   43.4095    8.4252 C.ar    1  UNL1        0.0559
      3 C           7.2637   42.8165    7.4536 C.ar    1  UNL1        0.0881
      4 C           7.6996   41.6412    6.8090 C.ar    1  UNL1        0.1535
      5 C           8.9551   41.1070    7.1352 C.ar    1  UNL1        0.0559
      6 C           9.7634   41.6985    8.1087 C.ar    1  UNL1        0.0881
      7 C           4.9413   43.6579    8.1295 C.2     1  UNL1        0.2497
      8 O           4.1884   44.6518    7.9493 O.2     1  UNL1       -0.2698
      9 N           5.9872   43.4103    7.1790 N.am    1  UNL1       -0.2779
     10 H           5.8115   43.6738    6.2469 H       1  UNL1        0.1553
     11 C           4.6846   42.7524    9.2716 C.ar    1  UNL1        0.0568
     12 C           3.3682   42.4611    9.6519 C.ar    1  UNL1        0.0252
     13 C           3.1334   41.5940   10.7213 C.ar    1  UNL1        0.0990
     14 C           5.4657   41.2886   11.0315 C.ar    1  UNL1        0.0990
     15 C           5.7406   42.1498    9.9675 C.ar    1  UNL1        0.0252
     16 N           4.1783   41.0315   11.3850 N.ar    1  UNL1       -0.2423
     17 C          11.4357   40.5220    9.6287 C.2     1  UNL1        0.2496
     18 O          10.5679   40.2400   10.4999 O.2     1  UNL1       -0.2698
     19 N          11.0398   41.1063    8.3808 N.am    1  UNL1       -0.2779
     20 H          11.6996   41.1001    7.6501 H       1  UNL1        0.1553
     21 C          12.8529   40.2035    9.8738 C.ar    1  UNL1        0.0537
     22 C          13.8377   40.6055    8.9596 C.ar    1  UNL1        0.0050
     23 C          15.1831   40.3057    9.1922 C.ar    1  UNL1        0.0068
     24 C          15.5533   39.6020   10.3413 C.ar    1  UNL1        0.0346
     25 C          14.5789   39.1982   11.2580 C.ar    1  UNL1        0.0068
     26 C          13.2336   39.4981   11.0252 C.ar    1  UNL1        0.0050
     27 BR         17.3870   39.1934   10.6585 Br      1  UNL1       -0.0490
     28 C           9.6747   44.0854   10.8856 C.3     1  UNL1        0.2525
     29 O          10.1595   43.5184    9.6759 O.3     1  UNL1       -0.4701
     30 C           6.3008   39.7248    6.0940 C.3     1  UNL1        0.2525
     31 O           6.8744   41.0061    5.8737 O.3     1  UNL1       -0.4701
@<TRIPOS>BOND
     1    28    29    1
     2     1    29    1
     3     2     3   ar
     4     3     9    1
     5     7    11    1
     6    12    13   ar
     7    14    16   ar
     8    15    11   ar
     9     4    31    1
    10     4     5   ar
    11    30    31    1
    12     6    19    1
    13     6     1   ar
    14    17    21    1
    15    22    23   ar
    16    24    27    1
    17    24    25   ar
    18    26    21   ar
    19     9     7   am
    20    19    17   am
    21     1     2   ar
    22     3     4   ar
    23     7     8    2
    24    11    12   ar
    25    13    16   ar
    26    14    15   ar
    27     5     6   ar
    28    17    18    2
    29    21    22   ar
    30    23    24   ar
    31    25    26   ar
    32     9    10    1
    33    19    20    1
@<TRIPOS>MOLECULE
MolPort-000-056-083 1324411 MCULE-3750092769 PubChem-1428095 ZINC000001324411 ZINC01324411
 31 33 0 0 0
SMALL
GASTEIGER

@<TRIPOS>ATOM
      1 C           8.9796   41.2195    7.6312 C.ar    1  UNL1        0.1535
      2 C           7.7422   40.9607    8.2404 C.ar    1  UNL1        0.0559
      3 C           7.5237   41.2524    9.5887 C.ar    1  UNL1        0.0881
      4 C           8.5525   41.8473   10.3465 C.ar    1  UNL1        0.1535
      5 C           9.7893   42.1066    9.7372 C.ar    1  UNL1        0.0559
      6 C          10.0071   41.8173    8.3881 C.ar    1  UNL1        0.0881
      7 C           4.9688   41.4226    9.6314 C.2     1  UNL1        0.2497
      8 O           3.9584   40.6870    9.7895 O.2     1  UNL1       -0.2698
      9 N           6.2310   40.9711   10.1429 N.am    1  UNL1       -0.2779
     10 H           6.2075   40.4134   10.9539 H       1  UNL1        0.1553
     11 C           4.8088   42.7438    8.9839 C.ar    1  UNL1        0.0568
     12 C           3.5507   43.3590    8.9499 C.ar    1  UNL1        0.0252
     13 C           3.4102   44.6125    8.3503 C.ar    1  UNL1        0.0990
     14 C           5.7256   44.6648    7.8352 C.ar    1  UNL1        0.0990
     15 C           5.9061   43.4128    8.4263 C.ar    1  UNL1        0.0252
     16 N           4.4912   45.2339    7.8079 N.ar    1  UNL1       -0.2423
     17 C          12.5128   41.4099    8.1718 C.2     1  UNL1        0.2496
     18 O          12.4685   40.3088    8.7858 O.2     1  UNL1       -0.2698
     19 N          11.2997   42.0962    7.8356 N.am    1  UNL1       -0.2779
     20 H          11.3597   42.8190    7.1698 H       1  UNL1        0.1553
     21 C          13.8114   41.9665    7.7545 C.ar    1  UNL1        0.0537
     22 C          13.8806   42.8908    6.7019 C.ar    1  UNL1        0.0050
     23 C          15.1121   43.4212    6.3066 C.ar    1  UNL1        0.0068
     24 C          16.2832   43.0313    6.9617 C.ar    1  UNL1        0.0346
     25 C          16.2235   42.1115    8.0120 C.ar    1  UNL1        0.0068
     26 C          14.9920   41.5812    8.4071 C.ar    1  UNL1        0.0050
     27 BR         17.9616   43.7543    6.4231 Br      1  UNL1       -0.0490
     28 C          10.4648   41.0274    5.6569 C.3     1  UNL1        0.2525
     29 O           9.2078   40.8586    6.2984 O.3     1  UNL1       -0.4701
     30 C           8.6404   41.3329   12.7689 C.3     1  UNL1        0.2525
     31 O           8.3283   42.1954   11.6835 O.3     1  UNL1       -0.4701
@<TRIPOS>BOND
     1    28    29    1
     2     1    29    1
     3     2     3   ar
     4     3     9    1
     5     7    11    1
     6    12    13   ar
     7    14    16   ar
     8    15    11   ar
     9     4    31    1
    10     4     5   ar
    11    30    31    1
    12     6    19    1
    13     6     1   ar
    14    17    21    1
    15    22    23   ar
    16    24    27    1
    17    24    25   ar
    18    26    21   ar
    19     9     7   am
    20    19    17   am
    21     1     2   ar
    22     3     4   ar
    23     7     8    2
    24    11    12   ar
    25    13    16   ar
    26    14    15   ar
    27     5     6   ar
    28    17    18    2
    29    21    22   ar
    30    23    24   ar
    31    25    26   ar
    32     9    10    1
    33    19    20    1
@<TRIPOS>MOLECULE
MolPort-000-056-083 1324411 MCULE-3750092769 PubChem-1428095 ZINC000001324411 ZINC01324411
 31 33 0 0 0
SMALL
GASTEIGER

@<TRIPOS>ATOM
      1 C          14.6533   37.4990    9.3969 C.ar    1  UNL1        0.1535
      2 C          15.6748   36.5374    9.4290 C.ar    1  UNL1        0.0559
      3 C          16.9870   36.8854    9.7572 C.ar    1  UNL1        0.0881
      4 C          17.2882   38.2205   10.0942 C.ar    1  UNL1        0.1535
      5 C          16.2667   39.1816   10.0628 C.ar    1  UNL1        0.0559
      6 C          14.9539   38.8332    9.7371 C.ar    1  UNL1        0.0881
      7 C          18.4529   35.0995    8.6527 C.2     1  UNL1        0.2497
      8 O          19.6466   34.6969    8.6580 O.2     1  UNL1       -0.2698
      9 N          17.9783   35.8490    9.7804 N.am    1  UNL1       -0.2779
     10 H          18.3716   35.6304   10.6560 H       1  UNL1        0.1553
     11 C          17.5709   34.7359    7.5212 C.ar    1  UNL1        0.0568
     12 C          17.5589   35.5223    6.3620 C.ar    1  UNL1        0.0252
     13 C          16.7351   35.1646    5.2925 C.ar    1  UNL1        0.0990
     14 C          15.9525   33.2680    6.4838 C.ar    1  UNL1        0.0990
     15 C          16.7630   33.5926    7.5733 C.ar    1  UNL1        0.0252
     16 N          15.9537   34.0549    5.3752 N.ar    1  UNL1       -0.2423
     17 C          12.9540   40.0785   10.7070 C.2     1  UNL1        0.2496
     18 O          13.0482   39.5174   11.8330 O.2     1  UNL1       -0.2698
     19 N          13.9644   39.8697    9.7116 N.am    1  UNL1       -0.2779
     20 H          13.9798   40.4896    8.9470 H       1  UNL1        0.1553
     21 C          11.8300   40.9905   10.4326 C.ar    1  UNL1        0.0537
     22 C          11.8425   41.8071    9.2923 C.ar    1  UNL1        0.0050
     23 C          10.7755   42.6712    9.0299 C.ar    1  UNL1        0.0068
     24 C           9.6880   42.7244    9.9058 C.ar    1  UNL1        0.0346
     25 C           9.6669   41.9139   11.0439 C.ar    1  UNL1        0.0068
     26 C          10.7339   41.0498   11.3062 C.ar    1  UNL1        0.0050
     27 BR          8.2337   43.9020    9.5480 Br      1  UNL1       -0.0490
     28 C          12.4230   36.5286    9.8709 C.3     1  UNL1        0.2525
     29 O          13.3576   37.1503    8.9991 O.3     1  UNL1       -0.4701
     30 C          19.6470   38.7483    9.5483 C.3     1  UNL1        0.2525
     31 O          18.5875   38.5715   10.4787 O.3     1  UNL1       -0.4701
@<TRIPOS>BOND
     1    28    29    1
     2     1    29    1
     3     2     3   ar
     4     3     9    1
     5     7    11    1
     6    12    13   ar
     7    14    16   ar
     8    15    11   ar
     9     4    31    1
    10     4     5   ar
    11    30    31    1
    12     6    19    1
    13     6     1   ar
    14    17    21    1
    15    22    23   ar
    16    24    27    1
    17    24    25   ar
    18    26    21   ar
    19     9     7   am
    20    19    17   am
    21     1     2   ar
    22     3     4   ar
    23     7     8    2
    24    11    12   ar
    25    13    16   ar
    26    14    15   ar
    27     5     6   ar
    28    17    18    2
    29    21    22   ar
    30    23    24   ar
    31    25    26   ar
    32     9    10    1
    33    19    20    1
@<TRIPOS>MOLECULE
MolPort-000-056-083 1324411 MCULE-3750092769 PubChem-1428095 ZINC000001324411 ZINC01324411
 31 33 0 0 0
SMALL
GASTEIGER

@<TRIPOS>ATOM
      1 C           9.3278   40.3192    6.1797 C.ar    1  UNL1        0.1535
      2 C           7.9693   40.1050    6.4582 C.ar    1  UNL1        0.0559
      3 C           7.1692   41.1210    6.9858 C.ar    1  UNL1        0.0881
      4 C           7.7255   42.3958    7.2138 C.ar    1  UNL1        0.1535
      5 C           9.0836   42.6100    6.9347 C.ar    1  UNL1        0.0559
      6 C           9.8831   41.5948    6.4047 C.ar    1  UNL1        0.0881
      7 C           5.0520   41.1571    8.4261 C.2     1  UNL1        0.2497
      8 O           3.8228   41.4132    8.3229 O.2     1  UNL1       -0.2698
      9 N           5.7862   40.8347    7.2363 N.am    1  UNL1       -0.2779
     10 H           5.2923   40.3714    6.5217 H       1  UNL1        0.1553
     11 C           5.6776   41.1373    9.7671 C.ar    1  UNL1        0.0568
     12 C           7.0075   41.5483    9.9255 C.ar    1  UNL1        0.0252
     13 C           7.5866   41.5410   11.1963 C.ar    1  UNL1        0.0990
     14 C           5.5649   40.7478   12.1516 C.ar    1  UNL1        0.0990
     15 C           4.9509   40.7419   10.8977 C.ar    1  UNL1        0.0252
     16 N           6.8601   41.1425   12.2744 N.ar    1  UNL1       -0.2423
     17 C          12.3191   41.7902    7.1252 C.2     1  UNL1        0.2496
     18 O          12.1321   41.1733    8.2096 O.2     1  UNL1       -0.2698
     19 N          11.2655   41.8807    6.1571 N.am    1  UNL1       -0.2779
     20 H          11.5121   42.1625    5.2466 H       1  UNL1        0.1553
     21 C          13.6388   42.3752    6.8312 C.ar    1  UNL1        0.0537
     22 C          14.7557   42.0289    7.6059 C.ar    1  UNL1        0.0050
     23 C          16.0088   42.5817    7.3264 C.ar    1  UNL1        0.0068
     24 C          16.1541   43.4845    6.2698 C.ar    1  UNL1        0.0346
     25 C          15.0470   43.8346    5.4923 C.ar    1  UNL1        0.0068
     26 C          13.7940   43.2818    5.7719 C.ar    1  UNL1        0.0050
     27 BR         17.8621   44.2379    5.8888 Br      1  UNL1       -0.0490
     28 C           9.9809   38.6909    4.4297 C.3     1  UNL1        0.2525
     29 O          10.1346   39.2734    5.7170 O.3     1  UNL1       -0.4701
     30 C           6.1280   44.2524    6.8375 C.3     1  UNL1        0.2525
     31 O           6.9213   43.4379    7.6899 O.3     1  UNL1       -0.4701
@<TRIPOS>BOND
     1    28    29    1
     2     1    29    1
     3     2     3   ar
     4     3     9    1
     5     7    11    1
     6    12    13   ar
     7    14    16   ar
     8    15    11   ar
     9     4    31    1
    10     4     5   ar
    11    30    31    1
    12     6    19    1
    13     6     1   ar
    14    17    21    1
    15    22    23   ar
    16    24    27    1
    17    24    25   ar
    18    26    21   ar
    19     9     7   am
    20    19    17   am
    21     1     2   ar
    22     3     4   ar
    23     7     8    2
    24    11    12   ar
    25    13    16   ar
    26    14    15   ar
    27     5     6   ar
    28    17    18    2
    29    21    22   ar
    30    23    24   ar
    31    25    26   ar
    32     9    10    1
    33    19    20    1
