@<TRIPOS>MOLECULE
MolPort-007-686-722 ChemDiv-D039-0031 MCULE-4244727285 PubChem-23605069 ZINC000006809950 ZINC06809950
 26 27 0 0 0
SMALL
GASTEIGER

@<TRIPOS>ATOM
      1 C           8.4852   41.9299    7.4773 C.ar    1  UNL1        0.0857
      2 C           8.9166   42.4918    8.6732 C.ar    1  UNL1        0.0408
      3 C           8.0571   43.1600    9.6904 C.3     1  UNL1        0.0500
      4 C          10.6713   41.7165    7.7181 C.ar    1  UNL1        0.1085
      5 C           9.6237   41.4327    6.8692 C.ar    1  UNL1        0.0153
      6 C           9.7222   40.7281    5.5584 C.3     1  UNL1        0.0342
      7 N          10.2506   42.3632    8.8240 N.ar    1  UNL1       -0.3451
      8 H          10.7996   42.6747    9.5795 H       1  UNL1        0.1668
      9 C          13.1234   42.2943    7.3959 C.2     1  UNL1        0.3092
     10 O          12.9214   43.5318    7.5301 O.2     1  UNL1       -0.2521
     11 N          12.0364   41.3664    7.4616 N.am    1  UNL1       -0.2551
     12 N          14.4404   41.8026    7.1301 N.am    1  UNL1       -0.2683
     13 H          12.2424   40.4142    7.3197 H       1  UNL1        0.1578
     14 H          14.5261   40.8649    6.8426 H       1  UNL1        0.1564
     15 C          15.6448   42.5709    7.2504 C.ar    1  UNL1        0.0476
     16 C          15.9916   43.5874    6.3309 C.ar    1  UNL1       -0.0083
     17 C          15.0980   43.9751    5.2024 C.3     1  UNL1        0.0323
     18 C          17.1734   44.3135    6.5135 C.ar    1  UNL1       -0.0030
     19 C          18.0048   44.0492    7.6040 C.ar    1  UNL1       -0.0002
     20 C          17.6506   43.0651    8.5283 C.ar    1  UNL1        0.0013
     21 C          16.4718   42.3359    8.3548 C.ar    1  UNL1        0.0144
     22 C           7.1033   41.8723    6.9584 C.2     1  UNL1        0.3421
     23 O           6.7302   42.6792    6.0634 O.2     1  UNL1       -0.2449
     24 O           6.2113   40.9224    7.4603 O.3     1  UNL1       -0.4454
     25 C           4.8670   42.4547    8.7208 C.3     1  UNL1        0.0513
     26 C           5.5424   41.0995    8.6999 C.3     1  UNL1        0.2089
@<TRIPOS>BOND
     1    25    26    1
     2    26    24    1
     3    22    24    1
     4    22     1    1
     5     2     7   ar
     6     3     2    1
     7     4    11    1
     8     9    12   am
     9    16    18   ar
    10    17    16    1
    11    19    20   ar
    12    21    15   ar
    13     5     1   ar
    14     6     5    1
    15     7     4   ar
    16    11     9   am
    17    12    15    1
    18    22    23    2
    19     1     2   ar
    20     4     5   ar
    21     9    10    2
    22    15    16   ar
    23    18    19   ar
    24    20    21   ar
    25     7     8    1
    26    11    13    1
    27    12    14    1
@<TRIPOS>MOLECULE
MolPort-007-686-722 ChemDiv-D039-0031 MCULE-4244727285 PubChem-23605069 ZINC000006809950 ZINC06809950
 26 27 0 0 0
SMALL
GASTEIGER

@<TRIPOS>ATOM
      1 C           8.5360   42.1045    8.1133 C.ar    1  UNL1        0.0857
      2 C           8.3770   42.1358    6.7328 C.ar    1  UNL1        0.0408
      3 C           7.1100   42.4162    6.0006 C.3     1  UNL1        0.0500
      4 C          10.4414   41.6771    7.0792 C.ar    1  UNL1        0.1085
      5 C           9.8702   41.8082    8.3263 C.ar    1  UNL1        0.0153
      6 C          10.5717   41.6558    9.6335 C.3     1  UNL1        0.0342
      7 N           9.5381   41.8757    6.0980 N.ar    1  UNL1       -0.3451
      8 H           9.6929   41.8387    5.1265 H       1  UNL1        0.1668
      9 C          12.9103   42.2725    7.0765 C.2     1  UNL1        0.3092
     10 O          12.6980   43.4513    7.4711 O.2     1  UNL1       -0.2521
     11 N          11.8221   41.3714    6.8513 N.am    1  UNL1       -0.2551
     12 N          14.2440   41.8318    6.8041 N.am    1  UNL1       -0.2683
     13 H          12.0389   40.4724    6.5139 H       1  UNL1        0.1578
     14 H          14.3517   40.9816    6.3197 H       1  UNL1        0.1564
     15 C          15.4354   42.5337    7.1826 C.ar    1  UNL1        0.0476
     16 C          15.9407   43.6263    6.4410 C.ar    1  UNL1       -0.0083
     17 C          15.2357   44.1662    5.2436 C.3     1  UNL1        0.0323
     18 C          17.0994   44.2806    6.8728 C.ar    1  UNL1       -0.0030
     19 C          17.7516   43.8696    8.0372 C.ar    1  UNL1       -0.0002
     20 C          17.2390   42.8092    8.7862 C.ar    1  UNL1        0.0013
     21 C          16.0819   42.1507    8.3634 C.ar    1  UNL1        0.0144
     22 C           7.5022   42.3375    9.1425 C.2     1  UNL1        0.3421
     23 O           7.3445   41.5073   10.0791 O.2     1  UNL1       -0.2449
     24 O           6.7005   43.4789    9.0766 O.3     1  UNL1       -0.4454
     25 C           8.4718   44.9272    9.7903 C.3     1  UNL1        0.0513
     26 C           7.2514   44.7763    8.9066 C.3     1  UNL1        0.2089
@<TRIPOS>BOND
     1    25    26    1
     2    26    24    1
     3    22    24    1
     4    22     1    1
     5     2     7   ar
     6     3     2    1
     7     4    11    1
     8     9    12   am
     9    16    18   ar
    10    17    16    1
    11    19    20   ar
    12    21    15   ar
    13     5     1   ar
    14     6     5    1
    15     7     4   ar
    16    11     9   am
    17    12    15    1
    18    22    23    2
    19     1     2   ar
    20     4     5   ar
    21     9    10    2
    22    15    16   ar
    23    18    19   ar
    24    20    21   ar
    25     7     8    1
    26    11    13    1
    27    12    14    1
@<TRIPOS>MOLECULE
MolPort-007-686-722 ChemDiv-D039-0031 MCULE-4244727285 PubChem-23605069 ZINC000006809950 ZINC06809950
 26 27 0 0 0
SMALL
GASTEIGER

@<TRIPOS>ATOM
      1 C          13.6719   41.7606    7.4430 C.ar    1  UNL1        0.0857
      2 C          13.3730   42.6066    6.3814 C.ar    1  UNL1        0.0408
      3 C          14.3361   43.4857    5.6607 C.3     1  UNL1        0.0500
      4 C          11.5282   41.6571    6.9174 C.ar    1  UNL1        0.1085
      5 C          12.4761   41.1530    7.7811 C.ar    1  UNL1        0.0153
      6 C          12.2366   40.1514    8.8597 C.3     1  UNL1        0.0342
      7 N          12.0654   42.5460    6.0574 N.ar    1  UNL1       -0.3451
      8 H          11.6022   43.0439    5.3455 H       1  UNL1        0.1668
      9 C           9.1521   41.8351    7.7966 C.2     1  UNL1        0.3092
     10 O           9.4636   42.6948    8.6650 O.2     1  UNL1       -0.2521
     11 N          10.1456   41.2828    6.9278 N.am    1  UNL1       -0.2551
     12 N           7.8045   41.3650    7.6972 N.am    1  UNL1       -0.2683
     13 H           9.8568   40.5924    6.2880 H       1  UNL1        0.1578
     14 H           7.6416   40.5650    7.1470 H       1  UNL1        0.1564
     15 C           6.6733   41.9697    8.3377 C.ar    1  UNL1        0.0476
     16 C           6.0839   43.1654    7.8667 C.ar    1  UNL1       -0.0083
     17 C           6.5601   43.8518    6.6320 C.3     1  UNL1        0.0323
     18 C           4.9702   43.6959    8.5264 C.ar    1  UNL1       -0.0030
     19 C           4.4302   43.0455    9.6380 C.ar    1  UNL1       -0.0002
     20 C           4.9933   41.8503   10.0879 C.ar    1  UNL1        0.0013
     21 C           6.1047   41.3124    9.4347 C.ar    1  UNL1        0.0144
     22 C          14.9874   41.5497    8.0813 C.2     1  UNL1        0.3421
     23 O          15.1135   40.6970    9.0022 O.2     1  UNL1       -0.2449
     24 O          16.0908   42.2960    7.6624 O.3     1  UNL1       -0.4454
     25 C          17.8297   43.8741    8.1418 C.3     1  UNL1        0.0513
     26 C          17.1944   42.5520    8.5180 C.3     1  UNL1        0.2089
@<TRIPOS>BOND
     1    25    26    1
     2    26    24    1
     3    22    24    1
     4    22     1    1
     5     2     7   ar
     6     3     2    1
     7     4    11    1
     8     9    12   am
     9    16    18   ar
    10    17    16    1
    11    19    20   ar
    12    21    15   ar
    13     5     1   ar
    14     6     5    1
    15     7     4   ar
    16    11     9   am
    17    12    15    1
    18    22    23    2
    19     1     2   ar
    20     4     5   ar
    21     9    10    2
    22    15    16   ar
    23    18    19   ar
    24    20    21   ar
    25     7     8    1
    26    11    13    1
    27    12    14    1
@<TRIPOS>MOLECULE
MolPort-007-686-722 ChemDiv-D039-0031 MCULE-4244727285 PubChem-23605069 ZINC000006809950 ZINC06809950
 26 27 0 0 0
SMALL
GASTEIGER

@<TRIPOS>ATOM
      1 C          14.2489   37.7435   10.2376 C.ar    1  UNL1        0.0857
      2 C          13.7060   36.7421    9.4410 C.ar    1  UNL1        0.0408
      3 C          14.4328   35.5597    8.8992 C.3     1  UNL1        0.0500
      4 C          12.1051   38.1080    9.8456 C.ar    1  UNL1        0.1085
      5 C          13.2089   38.6189   10.4931 C.ar    1  UNL1        0.0153
      6 C          13.2502   39.8705   11.3030 C.3     1  UNL1        0.0342
      7 N          12.3973   36.9609    9.1998 N.ar    1  UNL1       -0.3451
      8 H          11.7863   36.4028    8.6666 H       1  UNL1        0.1668
      9 C          10.3756   39.7465    8.9656 C.2     1  UNL1        0.3092
     10 O          11.1633   40.2226    8.1035 O.2     1  UNL1       -0.2521
     11 N          10.8080   38.7156    9.8584 N.am    1  UNL1       -0.2551
     12 N           9.0477   40.2635    9.0936 N.am    1  UNL1       -0.2683
     13 H          10.1647   38.3996   10.5334 H       1  UNL1        0.1578
     14 H           8.5346   40.0056    9.8932 H       1  UNL1        0.1564
     15 C           8.4071   41.1284    8.1464 C.ar    1  UNL1        0.0476
     16 C           7.8556   40.6515    6.9350 C.ar    1  UNL1       -0.0083
     17 C           7.8471   39.2028    6.5833 C.3     1  UNL1        0.0323
     18 C           7.2280   41.5445    6.0601 C.ar    1  UNL1       -0.0030
     19 C           7.1319   42.9001    6.3817 C.ar    1  UNL1       -0.0002
     20 C           7.6510   43.3686    7.5897 C.ar    1  UNL1        0.0013
     21 C           8.2783   42.4839    8.4701 C.ar    1  UNL1        0.0144
     22 C          15.6425   37.8560   10.7146 C.2     1  UNL1        0.3421
     23 O          15.9683   37.3730   11.8334 O.2     1  UNL1       -0.2449
     24 O          16.5982   38.4972    9.9239 O.3     1  UNL1       -0.4454
     25 C          17.0004   40.8182    9.4817 C.3     1  UNL1        0.0513
     26 C          17.3087   39.6386   10.3799 C.3     1  UNL1        0.2089
@<TRIPOS>BOND
     1    25    26    1
     2    26    24    1
     3    22    24    1
     4    22     1    1
     5     2     7   ar
     6     3     2    1
     7     4    11    1
     8     9    12   am
     9    16    18   ar
    10    17    16    1
    11    19    20   ar
    12    21    15   ar
    13     5     1   ar
    14     6     5    1
    15     7     4   ar
    16    11     9   am
    17    12    15    1
    18    22    23    2
    19     1     2   ar
    20     4     5   ar
    21     9    10    2
    22    15    16   ar
    23    18    19   ar
    24    20    21   ar
    25     7     8    1
    26    11    13    1
    27    12    14    1
@<TRIPOS>MOLECULE
MolPort-007-686-722 ChemDiv-D039-0031 MCULE-4244727285 PubChem-23605069 ZINC000006809950 ZINC06809950
 26 27 0 0 0
SMALL
GASTEIGER

@<TRIPOS>ATOM
      1 C          14.6412   42.3275    7.2519 C.ar    1  UNL1        0.0857
      2 C          14.0431   42.9034    6.1372 C.ar    1  UNL1        0.0408
      3 C          14.6698   43.8935    5.2170 C.3     1  UNL1        0.0500
      4 C          12.5774   41.5866    6.9798 C.ar    1  UNL1        0.1085
      5 C          13.6884   41.4802    7.7879 C.ar    1  UNL1        0.0153
      6 C          13.8151   40.6158    8.9967 C.3     1  UNL1        0.0342
      7 N          12.7832   42.4533    5.9676 N.ar    1  UNL1       -0.3451
      8 H          12.1495   42.7039    5.2571 H       1  UNL1        0.1668
      9 C          10.2410   41.3398    7.9445 C.2     1  UNL1        0.3092
     10 O          10.2897   42.4552    8.5307 O.2     1  UNL1       -0.2521
     11 N          11.3571   40.8653    7.1854 N.am    1  UNL1       -0.2551
     12 N           9.0822   40.5098    8.0674 N.am    1  UNL1       -0.2683
     13 H          11.2804   39.9748    6.7728 H       1  UNL1        0.1578
     14 H           9.1564   39.5771    7.7611 H       1  UNL1        0.1564
     15 C           7.8210   40.9324    8.6026 C.ar    1  UNL1        0.0476
     16 C           6.6138   40.8270    7.8742 C.ar    1  UNL1       -0.0083
     17 C           6.5568   40.2116    6.5177 C.3     1  UNL1        0.0323
     18 C           5.4126   41.2414    8.4595 C.ar    1  UNL1       -0.0030
     19 C           5.3972   41.7459    9.7616 C.ar    1  UNL1       -0.0002
     20 C           6.5836   41.8249   10.4927 C.ar    1  UNL1        0.0013
     21 C           7.7876   41.4123    9.9169 C.ar    1  UNL1        0.0144
     22 C          16.0068   42.5657    7.7628 C.2     1  UNL1        0.3421
     23 O          16.7064   41.5987    8.1710 O.2     1  UNL1       -0.2449
     24 O          16.5215   43.8634    7.7920 O.3     1  UNL1       -0.4454
     25 C          17.9183   43.7428    5.8481 C.3     1  UNL1        0.0513
     26 C          17.8162   44.1705    7.2972 C.3     1  UNL1        0.2089
@<TRIPOS>BOND
     1    25    26    1
     2    26    24    1
     3    22    24    1
     4    22     1    1
     5     2     7   ar
     6     3     2    1
     7     4    11    1
     8     9    12   am
     9    16    18   ar
    10    17    16    1
    11    19    20   ar
    12    21    15   ar
    13     5     1   ar
    14     6     5    1
    15     7     4   ar
    16    11     9   am
    17    12    15    1
    18    22    23    2
    19     1     2   ar
    20     4     5   ar
    21     9    10    2
    22    15    16   ar
    23    18    19   ar
    24    20    21   ar
    25     7     8    1
    26    11    13    1
    27    12    14    1
@<TRIPOS>MOLECULE
MolPort-007-686-722 ChemDiv-D039-0031 MCULE-4244727285 PubChem-23605069 ZINC000006809950 ZINC06809950
 26 27 0 0 0
SMALL
GASTEIGER

@<TRIPOS>ATOM
      1 C          15.5209   41.3608    8.5126 C.ar    1  UNL1        0.0857
      2 C          15.1989   40.3232    9.3796 C.ar    1  UNL1        0.0408
      3 C          16.1284   39.6546   10.3330 C.3     1  UNL1        0.0500
      4 C          13.3961   40.7865    8.3178 C.ar    1  UNL1        0.1085
      5 C          14.3521   41.6523    7.8328 C.ar    1  UNL1        0.0153
      6 C          14.1444   42.6899    6.7820 C.3     1  UNL1        0.0342
      7 N          13.9025   39.9701    9.2639 N.ar    1  UNL1       -0.3451
      8 H          13.4277   39.2669    9.7632 H       1  UNL1        0.1668
      9 C          11.0158   41.6721    8.2946 C.2     1  UNL1        0.3092
     10 O          11.2678   42.5709    9.1425 O.2     1  UNL1       -0.2521
     11 N          12.0338   40.7579    7.8762 N.am    1  UNL1       -0.2551
     12 N           9.6927   41.5245    7.7708 N.am    1  UNL1       -0.2683
     13 H          11.7783   40.0553    7.2357 H       1  UNL1        0.1578
     14 H           9.4923   40.7028    7.2668 H       1  UNL1        0.1564
     15 C           8.6363   42.4817    7.9236 C.ar    1  UNL1        0.0476
     16 C           7.4593   42.4444    7.1410 C.ar    1  UNL1       -0.0083
     17 C           7.2054   41.3688    6.1406 C.3     1  UNL1        0.0323
     18 C           6.4571   43.3976    7.3507 C.ar    1  UNL1       -0.0030
     19 C           6.6065   44.3765    8.3355 C.ar    1  UNL1       -0.0002
     20 C           7.7553   44.3983    9.1280 C.ar    1  UNL1        0.0013
     21 C           8.7607   43.4497    8.9267 C.ar    1  UNL1        0.0144
     22 C          16.8332   42.0186    8.3464 C.2     1  UNL1        0.3421
     23 O          17.8848   41.3246    8.2859 O.2     1  UNL1       -0.2449
     24 O          16.9067   43.4101    8.2558 O.3     1  UNL1       -0.4454
     25 C          17.4993   43.8915    5.9839 C.3     1  UNL1        0.0513
     26 C          17.8709   44.0610    7.4421 C.3     1  UNL1        0.2089
@<TRIPOS>BOND
     1    25    26    1
     2    26    24    1
     3    22    24    1
     4    22     1    1
     5     2     7   ar
     6     3     2    1
     7     4    11    1
     8     9    12   am
     9    16    18   ar
    10    17    16    1
    11    19    20   ar
    12    21    15   ar
    13     5     1   ar
    14     6     5    1
    15     7     4   ar
    16    11     9   am
    17    12    15    1
    18    22    23    2
    19     1     2   ar
    20     4     5   ar
    21     9    10    2
    22    15    16   ar
    23    18    19   ar
    24    20    21   ar
    25     7     8    1
    26    11    13    1
    27    12    14    1
@<TRIPOS>MOLECULE
MolPort-007-686-722 ChemDiv-D039-0031 MCULE-4244727285 PubChem-23605069 ZINC000006809950 ZINC06809950
 26 27 0 0 0
SMALL
GASTEIGER

@<TRIPOS>ATOM
      1 C           8.1272   41.9143    9.2357 C.ar    1  UNL1        0.0857
      2 C           7.8297   42.5413    8.0314 C.ar    1  UNL1        0.0408
      3 C           6.5526   43.2290    7.6909 C.3     1  UNL1        0.0500
      4 C           9.8208   41.7768    7.8232 C.ar    1  UNL1        0.1085
      5 C           9.4128   41.4250    9.0914 C.ar    1  UNL1        0.0153
      6 C          10.2159   40.6658   10.0929 C.3     1  UNL1        0.0342
      7 N           8.8614   42.4598    7.1666 N.ar    1  UNL1       -0.3451
      8 H           8.9047   42.8214    6.2519 H       1  UNL1        0.1668
      9 C          12.3196   42.1533    7.5694 C.2     1  UNL1        0.3092
     10 O          12.3188   43.1491    8.3432 O.2     1  UNL1       -0.2521
     11 N          11.1040   41.4606    7.2707 N.am    1  UNL1       -0.2551
     12 N          13.5329   41.7281    6.9416 N.am    1  UNL1       -0.2683
     13 H          11.1532   40.7089    6.6368 H       1  UNL1        0.1578
     14 H          13.4603   41.0789    6.2051 H       1  UNL1        0.1564
     15 C          14.8463   42.1752    7.3031 C.ar    1  UNL1        0.0476
     16 C          15.4693   43.2816    6.6812 C.ar    1  UNL1       -0.0083
     17 C          14.7793   44.1016    5.6451 C.3     1  UNL1        0.0323
     18 C          16.7465   43.6788    7.0914 C.ar    1  UNL1       -0.0030
     19 C          17.4032   42.9978    8.1186 C.ar    1  UNL1       -0.0002
     20 C          16.7788   41.9226    8.7529 C.ar    1  UNL1        0.0013
     21 C          15.5031   41.5198    8.3508 C.ar    1  UNL1        0.0144
     22 C           7.2580   41.7922   10.4239 C.2     1  UNL1        0.3421
     23 O           7.7099   42.0689   11.5686 O.2     1  UNL1       -0.2449
     24 O           5.9349   41.3704   10.2769 O.3     1  UNL1       -0.4454
     25 C           3.9097   40.2654   10.9262 C.3     1  UNL1        0.0513
     26 C           5.1204   41.0457   11.3935 C.3     1  UNL1        0.2089
@<TRIPOS>BOND
     1    25    26    1
     2    26    24    1
     3    22    24    1
     4    22     1    1
     5     2     7   ar
     6     3     2    1
     7     4    11    1
     8     9    12   am
     9    16    18   ar
    10    17    16    1
    11    19    20   ar
    12    21    15   ar
    13     5     1   ar
    14     6     5    1
    15     7     4   ar
    16    11     9   am
    17    12    15    1
    18    22    23    2
    19     1     2   ar
    20     4     5   ar
    21     9    10    2
    22    15    16   ar
    23    18    19   ar
    24    20    21   ar
    25     7     8    1
    26    11    13    1
    27    12    14    1
@<TRIPOS>MOLECULE
MolPort-007-686-722 ChemDiv-D039-0031 MCULE-4244727285 PubChem-23605069 ZINC000006809950 ZINC06809950
 26 27 0 0 0
SMALL
GASTEIGER

@<TRIPOS>ATOM
      1 C          13.4763   40.8731    8.8256 C.ar    1  UNL1        0.0857
      2 C          12.9827   41.6051    7.7520 C.ar    1  UNL1        0.0408
      3 C          13.7954   42.2881    6.7067 C.3     1  UNL1        0.0500
      4 C          11.2672   40.9163    8.8358 C.ar    1  UNL1        0.1085
      5 C          12.3626   40.4332    9.5179 C.ar    1  UNL1        0.0153
      6 C          12.3294   39.6027   10.7562 C.3     1  UNL1        0.0342
      7 N          11.6344   41.6335    7.7546 N.ar    1  UNL1       -0.3451
      8 H          11.0447   42.0817    7.1061 H       1  UNL1        0.1668
      9 C           8.8565   41.6517    9.1491 C.2     1  UNL1        0.3092
     10 O           9.0905   42.8266    8.7553 O.2     1  UNL1       -0.2521
     11 N           9.9077   40.6841    9.2229 N.am    1  UNL1       -0.2551
     12 N           7.5410   41.2808    9.5720 N.am    1  UNL1       -0.2683
     13 H           9.6792   39.7900    9.5661 H       1  UNL1        0.1578
     14 H           7.4410   40.4253   10.0488 H       1  UNL1        0.1564
     15 C           6.3571   42.0597    9.3545 C.ar    1  UNL1        0.0476
     16 C           5.2011   41.9240   10.1573 C.ar    1  UNL1       -0.0083
     17 C           5.1519   41.0022   11.3278 C.3     1  UNL1        0.0323
     18 C           4.0834   42.7263    9.9043 C.ar    1  UNL1       -0.0030
     19 C           4.1073   43.6679    8.8733 C.ar    1  UNL1       -0.0002
     20 C           5.2571   43.8231    8.0974 C.ar    1  UNL1        0.0013
     21 C           6.3783   43.0273    8.3435 C.ar    1  UNL1        0.0144
     22 C          14.8913   40.6152    9.1627 C.2     1  UNL1        0.3421
     23 O          15.1833   39.9104   10.1673 O.2     1  UNL1       -0.2449
     24 O          15.9046   41.1527    8.3663 O.3     1  UNL1       -0.4454
     25 C          17.6148   42.7864    7.9784 C.3     1  UNL1        0.0513
     26 C          17.0707   41.7380    8.9260 C.3     1  UNL1        0.2089
@<TRIPOS>BOND
     1    25    26    1
     2    26    24    1
     3    22    24    1
     4    22     1    1
     5     2     7   ar
     6     3     2    1
     7     4    11    1
     8     9    12   am
     9    16    18   ar
    10    17    16    1
    11    19    20   ar
    12    21    15   ar
    13     5     1   ar
    14     6     5    1
    15     7     4   ar
    16    11     9   am
    17    12    15    1
    18    22    23    2
    19     1     2   ar
    20     4     5   ar
    21     9    10    2
    22    15    16   ar
    23    18    19   ar
    24    20    21   ar
    25     7     8    1
    26    11    13    1
    27    12    14    1
@<TRIPOS>MOLECULE
MolPort-007-686-722 ChemDiv-D039-0031 MCULE-4244727285 PubChem-23605069 ZINC000006809950 ZINC06809950
 26 27 0 0 0
SMALL
GASTEIGER

@<TRIPOS>ATOM
      1 C          13.9673   37.9729   10.2980 C.ar    1  UNL1        0.0857
      2 C          12.6911   37.4295   10.2076 C.ar    1  UNL1        0.0408
      3 C          12.2821   36.0685   10.6551 C.3     1  UNL1        0.0500
      4 C          12.5528   39.4025    9.3828 C.ar    1  UNL1        0.1085
      5 C          13.8676   39.2448    9.7639 C.ar    1  UNL1        0.0153
      6 C          14.9513   40.2591    9.6188 C.3     1  UNL1        0.0342
      7 N          11.8247   38.2994    9.6497 N.ar    1  UNL1       -0.3451
      8 H          10.8661   38.1592    9.4749 H       1  UNL1        0.1668
      9 C          10.6386   40.8229    8.5062 C.2     1  UNL1        0.3092
     10 O           9.7753   39.9385    8.7568 O.2     1  UNL1       -0.2521
     11 N          12.0230   40.5897    8.7814 N.am    1  UNL1       -0.2551
     12 N          10.2503   42.0590    7.8994 N.am    1  UNL1       -0.2683
     13 H          12.6605   41.2997    8.5388 H       1  UNL1        0.1578
     14 H          10.9652   42.6363    7.5461 H       1  UNL1        0.1564
     15 C           8.8997   42.5213    7.7664 C.ar    1  UNL1        0.0476
     16 C           8.2753   43.3316    8.7424 C.ar    1  UNL1       -0.0083
     17 C           8.9983   43.8145    9.9534 C.3     1  UNL1        0.0323
     18 C           6.9596   43.7645    8.5455 C.ar    1  UNL1       -0.0030
     19 C           6.2650   43.4121    7.3864 C.ar    1  UNL1       -0.0002
     20 C           6.8888   42.6354    6.4087 C.ar    1  UNL1        0.0013
     21 C           8.2026   42.1997    6.5962 C.ar    1  UNL1        0.0144
     22 C          15.1799   37.3324   10.8474 C.2     1  UNL1        0.3421
     23 O          15.2932   37.1564   12.0914 O.2     1  UNL1       -0.2449
     24 O          16.1998   36.9216    9.9867 O.3     1  UNL1       -0.4454
     25 C          18.0185   38.4586   10.2589 C.3     1  UNL1        0.0513
     26 C          17.5702   37.0148   10.3456 C.3     1  UNL1        0.2089
@<TRIPOS>BOND
     1    25    26    1
     2    26    24    1
     3    22    24    1
     4    22     1    1
     5     2     7   ar
     6     3     2    1
     7     4    11    1
     8     9    12   am
     9    16    18   ar
    10    17    16    1
    11    19    20   ar
    12    21    15   ar
    13     5     1   ar
    14     6     5    1
    15     7     4   ar
    16    11     9   am
    17    12    15    1
    18    22    23    2
    19     1     2   ar
    20     4     5   ar
    21     9    10    2
    22    15    16   ar
    23    18    19   ar
    24    20    21   ar
    25     7     8    1
    26    11    13    1
    27    12    14    1
@<TRIPOS>MOLECULE
MolPort-007-686-722 ChemDiv-D039-0031 MCULE-4244727285 PubChem-23605069 ZINC000006809950 ZINC06809950
 26 27 0 0 0
SMALL
GASTEIGER

@<TRIPOS>ATOM
      1 C          13.5598   38.1560   10.1092 C.ar    1  UNL1        0.0857
      2 C          13.7828   39.4280    9.5952 C.ar    1  UNL1        0.0408
      3 C          15.0815   40.1584    9.5907 C.3     1  UNL1        0.0500
      4 C          11.7066   39.0132    9.2647 C.ar    1  UNL1        0.1085
      5 C          12.2186   37.8978    9.8911 C.ar    1  UNL1        0.0153
      6 C          11.4575   36.6673   10.2529 C.3     1  UNL1        0.0342
      7 N          12.6539   39.9545    9.0784 N.ar    1  UNL1       -0.3451
      8 H          12.5448   40.8369    8.6557 H       1  UNL1        0.1668
      9 C           9.6278   40.3947    8.7949 C.2     1  UNL1        0.3092
     10 O          10.1803   41.4728    9.1453 O.2     1  UNL1       -0.2521
     11 N          10.3404   39.1557    8.8583 N.am    1  UNL1       -0.2551
     12 N           8.2616   40.3886    8.3703 N.am    1  UNL1       -0.2683
     13 H           9.8545   38.3384    8.6031 H       1  UNL1        0.1578
     14 H           7.8139   39.5153    8.2919 H       1  UNL1        0.1564
     15 C           7.4947   41.5568    8.0502 C.ar    1  UNL1        0.0476
     16 C           6.6239   42.1712    8.9794 C.ar    1  UNL1       -0.0083
     17 C           6.4867   41.6826   10.3810 C.3     1  UNL1        0.0323
     18 C           5.9159   43.3202    8.6109 C.ar    1  UNL1       -0.0030
     19 C           6.0736   43.8702    7.3371 C.ar    1  UNL1       -0.0002
     20 C           6.9537   43.2815    6.4276 C.ar    1  UNL1        0.0013
     21 C           7.6658   42.1349    6.7871 C.ar    1  UNL1        0.0144
     22 C          14.5433   37.2623   10.7543 C.2     1  UNL1        0.3421
     23 O          14.9083   37.4770   11.9426 O.2     1  UNL1       -0.2449
     24 O          15.0674   36.1789   10.0461 O.3     1  UNL1       -0.4454
     25 C          17.0970   35.9529    8.7915 C.3     1  UNL1        0.0513
     26 C          15.6304   36.3280    8.7514 C.3     1  UNL1        0.2089
@<TRIPOS>BOND
     1    25    26    1
     2    26    24    1
     3    22    24    1
     4    22     1    1
     5     2     7   ar
     6     3     2    1
     7     4    11    1
     8     9    12   am
     9    16    18   ar
    10    17    16    1
    11    19    20   ar
    12    21    15   ar
    13     5     1   ar
    14     6     5    1
    15     7     4   ar
    16    11     9   am
    17    12    15    1
    18    22    23    2
    19     1     2   ar
    20     4     5   ar
    21     9    10    2
    22    15    16   ar
    23    18    19   ar
    24    20    21   ar
    25     7     8    1
    26    11    13    1
    27    12    14    1
