@<TRIPOS>MOLECULE
MolPort-008-387-160 16648348 CSSS00132982486 MCULE-2852355867 PubChem-17224440 ZINC000016648348 ZINC16648348
 31 32 0 0 0
SMALL
GASTEIGER

@<TRIPOS>ATOM
      1 C           3.6206   42.4120    9.6264 C.2     1  UNL1        0.2257
      2 N           3.3852   41.7334   10.8657 N.am    1  UNL1       -0.2839
      3 O           2.9288   43.4122    9.2946 O.2     1  UNL1       -0.2748
      4 H           4.0081   41.0069   11.0971 H       1  UNL1        0.1549
      5 C           4.7389   41.9405    8.7466 C.3     1  UNL1        0.0802
      6 C           5.5111   43.0942    8.0910 C.3     1  UNL1        0.0306
      7 C           6.4480   43.7792    9.0859 C.3     1  UNL1        0.0939
      8 C           6.6034   41.6895   10.4386 C.3     1  UNL1        0.0939
      9 C           5.6725   40.9626    9.4698 C.3     1  UNL1        0.0306
     10 C           8.7209   42.8928    9.6996 C.2     1  UNL1        0.2247
     11 N           7.2842   42.7786    9.7424 N.am    1  UNL1       -0.2795
     12 O           9.2352   43.9152    9.1656 O.2     1  UNL1       -0.2749
     13 C           9.6261   41.8222   10.2789 C.3     1  UNL1        0.0691
     14 C           9.5019   40.5425    9.4741 C.3     1  UNL1        0.0091
     15 C          11.0863   42.2471   10.2500 C.3     1  UNL1        0.0091
     16 C           9.2510   41.5478   11.7234 C.3     1  UNL1        0.0091
     17 C           0.3320   42.5490   13.6954 C.ar    1  UNL1        0.1220
     18 C           1.6514   42.9494   13.9319 C.ar    1  UNL1        0.0212
     19 C           2.6479   42.6744   12.9908 C.ar    1  UNL1        0.0160
     20 C           2.3348   42.0042   11.8035 C.ar    1  UNL1        0.0504
     21 C           1.0096   41.6054   11.5702 C.ar    1  UNL1        0.0160
     22 C           0.0132   41.8774   12.5115 C.ar    1  UNL1        0.0212
     23 S          -0.9282   42.8962   14.8679 S.O2    1  UNL1        0.0602
     24 O          -1.7393   41.6514   15.0987 O.2     1  UNL1       -0.1530
     25 O          -0.3039   43.3318   16.1662 O.2     1  UNL1       -0.1530
     26 N          -1.9756   44.1458   14.2783 N.3     1  UNL1       -0.1794
     27 H          -2.4434   43.8328   13.4276 H       1  UNL1        0.1488
     28 C          -1.1605   45.3172   13.9916 C.3     1  UNL1        0.0914
     29 C          -1.9891   46.5830   14.1458 C.3     1  UNL1        0.0188
     30 C          -2.2333   47.5648   16.4326 C.3     1  UNL1        0.0000
     31 C          -1.3790   47.5176   15.1795 C.3     1  UNL1        0.0015
@<TRIPOS>BOND
     1    30    31    1
     2    31    29    1
     3    29    28    1
     4    28    26    1
     5    18    19   ar
     6    20     2    1
     7    20    21   ar
     8     5     1    1
     9     5     6    1
    10     6     7    1
    11     7    11    1
    12     8    11    1
    13     8     9    1
    14     9     5    1
    15    13    10    1
    16    13    14    1
    17    13    15    1
    18    13    16    1
    19    22    17   ar
    20     2     1   am
    21    11    10   am
    22    23    26    1
    23    23    17    1
    24    17    18   ar
    25    19    20   ar
    26     1     3    2
    27    10    12    2
    28    21    22   ar
    29    23    24    2
    30    23    25    2
    31    26    27    1
    32     2     4    1
@<TRIPOS>MOLECULE
MolPort-008-387-160 16648348 CSSS00132982486 MCULE-2852355867 PubChem-17224440 ZINC000016648348 ZINC16648348
 31 32 0 0 0
SMALL
GASTEIGER

@<TRIPOS>ATOM
      1 C           6.2065   41.7145    8.4013 C.2     1  UNL1        0.2257
      2 N           5.9382   41.1039    9.6688 N.am    1  UNL1       -0.2839
      3 O           5.4908   42.6602    7.9740 O.2     1  UNL1       -0.2748
      4 H           6.5786   40.4219    9.9754 H       1  UNL1        0.1549
      5 C           7.3861   41.2403    7.6071 C.3     1  UNL1        0.0802
      6 C           8.3081   42.3853    7.1642 C.3     1  UNL1        0.0306
      7 C           9.1653   42.8955    8.3225 C.3     1  UNL1        0.0939
      8 C           9.0152   40.6813    9.4608 C.3     1  UNL1        0.0939
      9 C           8.1579   40.1266    8.3246 C.3     1  UNL1        0.0306
     10 C          11.2831   41.7755    9.0900 C.2     1  UNL1        0.2247
     11 N           9.8470   41.7734    8.9608 N.am    1  UNL1       -0.2795
     12 O          11.9262   42.7992    8.7250 O.2     1  UNL1       -0.2749
     13 C          12.0375   40.5856    9.6525 C.3     1  UNL1        0.0691
     14 C          11.7250   39.3405    8.8446 C.3     1  UNL1        0.0091
     15 C          13.5422   40.8026    9.6048 C.3     1  UNL1        0.0091
     16 C          11.6469   40.3580   11.1010 C.3     1  UNL1        0.0091
     17 C           2.6318   41.8663   12.2146 C.ar    1  UNL1        0.1220
     18 C           2.8671   40.5814   11.7139 C.ar    1  UNL1        0.0212
     19 C           3.9606   40.3439   10.8760 C.ar    1  UNL1        0.0160
     20 C           4.8318   41.3846   10.5368 C.ar    1  UNL1        0.0504
     21 C           4.5922   42.6717   11.0424 C.ar    1  UNL1        0.0160
     22 C           3.4979   42.9108   11.8779 C.ar    1  UNL1        0.0212
     23 S           1.2652   42.1733   13.2737 S.O2    1  UNL1        0.0602
     24 O           0.7575   40.8639   13.8106 O.2     1  UNL1       -0.1530
     25 O           1.7006   43.0464   14.4197 O.2     1  UNL1       -0.1530
     26 N          -0.0134   42.9542   12.4010 N.3     1  UNL1       -0.1794
     27 H          -0.1528   43.8980   12.7618 H       1  UNL1        0.1488
     28 C          -1.2264   42.1709   12.5846 C.3     1  UNL1        0.0914
     29 C          -2.2017   42.9174   13.4814 C.3     1  UNL1        0.0188
     30 C          -2.4520   44.6567   15.2604 C.3     1  UNL1        0.0000
     31 C          -1.4685   43.8338   14.4492 C.3     1  UNL1        0.0015
@<TRIPOS>BOND
     1    30    31    1
     2    31    29    1
     3    29    28    1
     4    28    26    1
     5    18    19   ar
     6    20     2    1
     7    20    21   ar
     8     5     1    1
     9     5     6    1
    10     6     7    1
    11     7    11    1
    12     8    11    1
    13     8     9    1
    14     9     5    1
    15    13    10    1
    16    13    14    1
    17    13    15    1
    18    13    16    1
    19    22    17   ar
    20     2     1   am
    21    11    10   am
    22    23    26    1
    23    23    17    1
    24    17    18   ar
    25    19    20   ar
    26     1     3    2
    27    10    12    2
    28    21    22   ar
    29    23    24    2
    30    23    25    2
    31    26    27    1
    32     2     4    1
@<TRIPOS>MOLECULE
MolPort-008-387-160 16648348 CSSS00132982486 MCULE-2852355867 PubChem-17224440 ZINC000016648348 ZINC16648348
 31 32 0 0 0
SMALL
GASTEIGER

@<TRIPOS>ATOM
      1 C          11.4795   41.6930    7.6244 C.2     1  UNL1        0.2257
      2 N          10.2065   41.4517    7.0139 N.am    1  UNL1       -0.2839
      3 O          11.5590   42.1392    8.8008 O.2     1  UNL1       -0.2748
      4 H          10.2158   41.0344    6.1222 H       1  UNL1        0.1549
      5 C          12.7229   41.3615    6.8557 C.3     1  UNL1        0.0802
      6 C          13.0408   42.3893    5.7603 C.3     1  UNL1        0.0306
      7 C          13.6254   43.6734    6.3484 C.3     1  UNL1        0.0939
      8 C          14.4889   42.4217    8.3254 C.3     1  UNL1        0.0939
      9 C          13.9241   41.1131    7.7757 C.3     1  UNL1        0.0306
     10 C          16.0420   43.9376    6.9957 C.2     1  UNL1        0.2247
     11 N          14.7468   43.3467    7.2243 N.am    1  UNL1       -0.2795
     12 O          16.1639   44.8054    6.0864 O.2     1  UNL1       -0.2749
     13 C          17.2558   43.5468    7.8174 C.3     1  UNL1        0.0691
     14 C          18.5220   44.0445    7.1467 C.3     1  UNL1        0.0091
     15 C          17.2047   44.1481    9.2136 C.3     1  UNL1        0.0091
     16 C          17.3226   42.0380    7.9639 C.3     1  UNL1        0.0091
     17 C           6.4084   42.2913    8.7062 C.ar    1  UNL1        0.1220
     18 C           7.3252   41.4749    9.3770 C.ar    1  UNL1        0.0212
     19 C           8.5736   41.2064    8.8081 C.ar    1  UNL1        0.0160
     20 C           8.9198   41.7559    7.5690 C.ar    1  UNL1        0.0504
     21 C           7.9971   42.5752    6.9004 C.ar    1  UNL1        0.0160
     22 C           6.7479   42.8420    7.4670 C.ar    1  UNL1        0.0212
     23 S           4.8406   42.6406    9.4160 S.O2    1  UNL1        0.0602
     24 O           4.4613   44.0590    9.0925 O.2     1  UNL1       -0.1530
     25 O           3.8083   41.7062    8.8448 O.2     1  UNL1       -0.1530
     26 N           4.9018   42.4562   11.1390 N.3     1  UNL1       -0.1794
     27 H           5.8446   42.6530   11.4750 H       1  UNL1        0.1488
     28 C           4.5407   41.0825   11.4569 C.3     1  UNL1        0.0914
     29 C           3.0997   41.0174   11.9387 C.3     1  UNL1        0.0188
     30 C           1.2342   42.4380   12.8074 C.3     1  UNL1        0.0000
     31 C           2.4400   42.3871   11.8876 C.3     1  UNL1        0.0015
@<TRIPOS>BOND
     1    30    31    1
     2    31    29    1
     3    29    28    1
     4    28    26    1
     5    18    19   ar
     6    20     2    1
     7    20    21   ar
     8     5     1    1
     9     5     6    1
    10     6     7    1
    11     7    11    1
    12     8    11    1
    13     8     9    1
    14     9     5    1
    15    13    10    1
    16    13    14    1
    17    13    15    1
    18    13    16    1
    19    22    17   ar
    20     2     1   am
    21    11    10   am
    22    23    26    1
    23    23    17    1
    24    17    18   ar
    25    19    20   ar
    26     1     3    2
    27    10    12    2
    28    21    22   ar
    29    23    24    2
    30    23    25    2
    31    26    27    1
    32     2     4    1
@<TRIPOS>MOLECULE
MolPort-008-387-160 16648348 CSSS00132982486 MCULE-2852355867 PubChem-17224440 ZINC000016648348 ZINC16648348
 31 32 0 0 0
SMALL
GASTEIGER

@<TRIPOS>ATOM
      1 C          11.8846   39.9303    7.4904 C.2     1  UNL1        0.2257
      2 N          12.5290   39.2952    8.6007 N.am    1  UNL1       -0.2839
      3 O          11.9548   39.4368    6.3324 O.2     1  UNL1       -0.2748
      4 H          12.3733   39.6919    9.4882 H       1  UNL1        0.1549
      5 C          11.0824   41.1725    7.7356 C.3     1  UNL1        0.0802
      6 C           9.5690   40.9389    7.6240 C.3     1  UNL1        0.0306
      7 C           9.0199   40.2197    8.8560 C.3     1  UNL1        0.0939
      8 C          10.8777   41.1178   10.2571 C.3     1  UNL1        0.0939
      9 C          11.4619   41.8566    9.0543 C.3     1  UNL1        0.0306
     10 C           8.4629   41.3811   11.0169 C.2     1  UNL1        0.2247
     11 N           9.4428   40.9218   10.0642 N.am    1  UNL1       -0.2795
     12 O           7.2488   41.0867   10.8322 O.2     1  UNL1       -0.2749
     13 C           8.8516   42.2033   12.2311 C.3     1  UNL1        0.0691
     14 C           8.6584   43.6802   11.9446 C.3     1  UNL1        0.0091
     15 C           8.0008   41.8517   13.4418 C.3     1  UNL1        0.0091
     16 C          10.3026   41.9455   12.5926 C.3     1  UNL1        0.0091
     17 C          14.9804   35.8352    8.4832 C.ar    1  UNL1        0.1220
     18 C          13.5906   35.7231    8.5973 C.ar    1  UNL1        0.0212
     19 C          12.7944   36.8715    8.6347 C.ar    1  UNL1        0.0160
     20 C          13.3777   38.1403    8.5515 C.ar    1  UNL1        0.0504
     21 C          14.7722   38.2477    8.4361 C.ar    1  UNL1        0.0160
     22 C          15.5693   37.1004    8.4014 C.ar    1  UNL1        0.0212
     23 S          15.9886   34.3985    8.4280 S.O2    1  UNL1        0.0602
     24 O          17.4336   34.8135    8.4286 O.2     1  UNL1       -0.1530
     25 O          15.7154   33.5431    9.6358 O.2     1  UNL1       -0.1530
     26 N          15.6677   33.4891    6.9870 N.3     1  UNL1       -0.1794
     27 H          15.3007   32.5696    7.2324 H       1  UNL1        0.1488
     28 C          16.9200   33.3433    6.2596 C.3     1  UNL1        0.0914
     29 C          16.7405   33.7799    4.8140 C.3     1  UNL1        0.0188
     30 C          18.7562   35.1918    4.3711 C.3     1  UNL1        0.0000
     31 C          18.0779   33.8630    4.0940 C.3     1  UNL1        0.0015
@<TRIPOS>BOND
     1    30    31    1
     2    31    29    1
     3    29    28    1
     4    28    26    1
     5    18    19   ar
     6    20     2    1
     7    20    21   ar
     8     5     1    1
     9     5     6    1
    10     6     7    1
    11     7    11    1
    12     8    11    1
    13     8     9    1
    14     9     5    1
    15    13    10    1
    16    13    14    1
    17    13    15    1
    18    13    16    1
    19    22    17   ar
    20     2     1   am
    21    11    10   am
    22    23    26    1
    23    23    17    1
    24    17    18   ar
    25    19    20   ar
    26     1     3    2
    27    10    12    2
    28    21    22   ar
    29    23    24    2
    30    23    25    2
    31    26    27    1
    32     2     4    1
@<TRIPOS>MOLECULE
MolPort-008-387-160 16648348 CSSS00132982486 MCULE-2852355867 PubChem-17224440 ZINC000016648348 ZINC16648348
 31 32 0 0 0
SMALL
GASTEIGER

@<TRIPOS>ATOM
      1 C           8.5084   41.4814    8.4110 C.2     1  UNL1        0.2257
      2 N           7.6875   40.7264    9.3097 N.am    1  UNL1       -0.2839
      3 O           8.1942   42.6565    8.0796 O.2     1  UNL1       -0.2748
      4 H           8.0279   39.8444    9.5843 H       1  UNL1        0.1549
      5 C           9.7779   40.8665    7.9040 C.3     1  UNL1        0.0802
      6 C           9.8523   39.3539    8.1565 C.3     1  UNL1        0.0306
      7 C           8.9679   38.5780    7.1805 C.3     1  UNL1        0.0939
      8 C           9.1559   40.4066    5.4948 C.3     1  UNL1        0.0939
      9 C          10.0456   41.2172    6.4356 C.3     1  UNL1        0.0306
     10 C           9.6559   38.0011    4.8306 C.2     1  UNL1        0.2247
     11 N           9.2717   38.9852    5.8118 N.am    1  UNL1       -0.2795
     12 O           9.6363   36.7800    5.1521 O.2     1  UNL1       -0.2749
     13 C          10.0789   38.3932    3.4274 C.3     1  UNL1        0.0691
     14 C           9.0501   39.3233    2.8133 C.3     1  UNL1        0.0091
     15 C          11.4163   39.1177    3.4271 C.3     1  UNL1        0.0091
     16 C          10.2209   37.1558    2.5607 C.3     1  UNL1        0.0091
     17 C           3.9151   41.9237   10.8362 C.ar    1  UNL1        0.1220
     18 C           4.0935   41.6988    9.4671 C.ar    1  UNL1        0.0212
     19 C           5.3420   41.3043    8.9773 C.ar    1  UNL1        0.0160
     20 C           6.4202   41.1243    9.8502 C.ar    1  UNL1        0.0504
     21 C           6.2360   41.3501   11.2231 C.ar    1  UNL1        0.0160
     22 C           4.9892   41.7470   11.7134 C.ar    1  UNL1        0.0212
     23 S           2.3488   42.4122   11.4622 S.O2    1  UNL1        0.0602
     24 O           2.2043   43.9013   11.3130 O.2     1  UNL1       -0.1530
     25 O           1.2579   41.7255   10.6852 O.2     1  UNL1       -0.1530
     26 N           2.2134   42.0018   13.1413 N.3     1  UNL1       -0.1794
     27 H           2.2219   40.9878   13.2517 H       1  UNL1        0.1488
     28 C           0.9555   42.5421   13.6358 C.3     1  UNL1        0.0914
     29 C           0.7611   42.1651   15.0962 C.3     1  UNL1        0.0188
     30 C          -1.6471   41.5123   15.2619 C.3     1  UNL1        0.0000
     31 C          -0.6169   42.5764   15.5921 C.3     1  UNL1        0.0015
@<TRIPOS>BOND
     1    30    31    1
     2    31    29    1
     3    29    28    1
     4    28    26    1
     5    18    19   ar
     6    20     2    1
     7    20    21   ar
     8     5     1    1
     9     5     6    1
    10     6     7    1
    11     7    11    1
    12     8    11    1
    13     8     9    1
    14     9     5    1
    15    13    10    1
    16    13    14    1
    17    13    15    1
    18    13    16    1
    19    22    17   ar
    20     2     1   am
    21    11    10   am
    22    23    26    1
    23    23    17    1
    24    17    18   ar
    25    19    20   ar
    26     1     3    2
    27    10    12    2
    28    21    22   ar
    29    23    24    2
    30    23    25    2
    31    26    27    1
    32     2     4    1
@<TRIPOS>MOLECULE
MolPort-008-387-160 16648348 CSSS00132982486 MCULE-2852355867 PubChem-17224440 ZINC000016648348 ZINC16648348
 31 32 0 0 0
SMALL
GASTEIGER

@<TRIPOS>ATOM
      1 C          11.9283   41.8419    6.9639 C.2     1  UNL1        0.2257
      2 N          12.0977   42.1055    8.3615 N.am    1  UNL1       -0.2839
      3 O          10.7877   41.5998    6.4845 O.2     1  UNL1       -0.2748
      4 H          13.0018   42.3593    8.6571 H       1  UNL1        0.1549
      5 C          13.1278   41.9044    6.0672 C.3     1  UNL1        0.0802
      6 C          13.3920   43.3141    5.5192 C.3     1  UNL1        0.0306
      7 C          14.0129   44.2216    6.5810 C.3     1  UNL1        0.0939
      8 C          14.9738   42.2470    7.7635 C.3     1  UNL1        0.0939
      9 C          14.3747   41.3009    6.7244 C.3     1  UNL1        0.0306
     10 C          16.4615   44.2213    7.1581 C.2     1  UNL1        0.2247
     11 N          15.1774   43.5656    7.1683 N.am    1  UNL1       -0.2795
     12 O          16.5392   45.4020    6.7166 O.2     1  UNL1       -0.2749
     13 C          17.7152   43.5332    7.6640 C.3     1  UNL1        0.0691
     14 C          17.4225   42.8034    8.9610 C.3     1  UNL1        0.0091
     15 C          18.2353   42.5109    6.6650 C.3     1  UNL1        0.0091
     16 C          18.8128   44.5547    7.8969 C.3     1  UNL1        0.0091
     17 C           9.1136   41.8265   11.3635 C.ar    1  UNL1        0.1220
     18 C          10.0461   40.7991   11.1848 C.ar    1  UNL1        0.0212
     19 C          11.0244   40.9039   10.1919 C.ar    1  UNL1        0.0160
     20 C          11.0846   42.0374    9.3742 C.ar    1  UNL1        0.0504
     21 C          10.1476   43.0660    9.5579 C.ar    1  UNL1        0.0160
     22 C           9.1676   42.9610   10.5485 C.ar    1  UNL1        0.0212
     23 S           7.8854   41.7076   12.6130 S.O2    1  UNL1        0.0602
     24 O           7.7281   40.2660   13.0098 O.2     1  UNL1       -0.1530
     25 O           8.3068   42.5116   13.8135 O.2     1  UNL1       -0.1530
     26 N           6.3643   42.2956   12.0242 N.3     1  UNL1       -0.1794
     27 H           5.7953   42.6254   12.8039 H       1  UNL1        0.1488
     28 C           5.6887   41.1969   11.3495 C.3     1  UNL1        0.0914
     29 C           4.2829   41.6143   10.9466 C.3     1  UNL1        0.0188
     30 C           2.5425   41.2541    9.1876 C.3     1  UNL1        0.0000
     31 C           4.0305   41.3446    9.4709 C.3     1  UNL1        0.0015
@<TRIPOS>BOND
     1    30    31    1
     2    31    29    1
     3    29    28    1
     4    28    26    1
     5    18    19   ar
     6    20     2    1
     7    20    21   ar
     8     5     1    1
     9     5     6    1
    10     6     7    1
    11     7    11    1
    12     8    11    1
    13     8     9    1
    14     9     5    1
    15    13    10    1
    16    13    14    1
    17    13    15    1
    18    13    16    1
    19    22    17   ar
    20     2     1   am
    21    11    10   am
    22    23    26    1
    23    23    17    1
    24    17    18   ar
    25    19    20   ar
    26     1     3    2
    27    10    12    2
    28    21    22   ar
    29    23    24    2
    30    23    25    2
    31    26    27    1
    32     2     4    1
@<TRIPOS>MOLECULE
MolPort-008-387-160 16648348 CSSS00132982486 MCULE-2852355867 PubChem-17224440 ZINC000016648348 ZINC16648348
 31 32 0 0 0
SMALL
GASTEIGER

@<TRIPOS>ATOM
      1 C          10.5685   42.9272   10.4525 C.2     1  UNL1        0.2257
      2 N          10.7798   41.5956   10.9358 N.am    1  UNL1       -0.2839
      3 O          11.4014   43.4758    9.6814 O.2     1  UNL1       -0.2748
      4 H          10.0562   41.2005   11.4738 H       1  UNL1        0.1549
      5 C           9.3120   43.6456   10.8426 C.3     1  UNL1        0.0802
      6 C           8.6270   44.3394    9.6565 C.3     1  UNL1        0.0306
      7 C           7.8963   43.3355    8.7649 C.3     1  UNL1        0.0939
      8 C           7.6219   41.7689   10.6863 C.3     1  UNL1        0.0939
      9 C           8.3443   42.7422   11.6161 C.3     1  UNL1        0.0306
     10 C           5.6077   42.4239    9.2749 C.2     1  UNL1        0.2247
     11 N           7.0146   42.5050    9.5800 N.am    1  UNL1       -0.2795
     12 O           5.1734   43.0081    8.2430 O.2     1  UNL1       -0.2749
     13 C           4.6409   41.6562   10.1565 C.3     1  UNL1        0.0691
     14 C           3.7053   40.8224    9.3020 C.3     1  UNL1        0.0091
     15 C           5.3710   40.7122   11.0996 C.3     1  UNL1        0.0091
     16 C           3.8281   42.6196   11.0013 C.3     1  UNL1        0.0091
     17 C          14.1970   39.1899   10.2073 C.ar    1  UNL1        0.1220
     18 C          13.6779   40.0167    9.2053 C.ar    1  UNL1        0.0212
     19 C          12.5514   40.8046    9.4588 C.ar    1  UNL1        0.0160
     20 C          11.9381   40.7792   10.7158 C.ar    1  UNL1        0.0504
     21 C          12.4630   39.9490   11.7182 C.ar    1  UNL1        0.0160
     22 C          13.5875   39.1590   11.4650 C.ar    1  UNL1        0.0212
     23 S          15.6162   38.2021    9.9011 S.O2    1  UNL1        0.0602
     24 O          16.7439   39.0900    9.4534 O.2     1  UNL1       -0.1530
     25 O          16.0160   37.4873   11.1637 O.2     1  UNL1       -0.1530
     26 N          15.2884   37.0419    8.6550 N.3     1  UNL1       -0.1794
     27 H          15.4064   37.4748    7.7390 H       1  UNL1        0.1488
     28 C          13.9145   36.5881    8.8137 C.3     1  UNL1        0.0914
     29 C          13.7788   35.7614   10.0829 C.3     1  UNL1        0.0188
     30 C          11.4652   36.6968   10.2427 C.3     1  UNL1        0.0000
     31 C          12.3204   35.4513   10.3844 C.3     1  UNL1        0.0015
@<TRIPOS>BOND
     1    30    31    1
     2    31    29    1
     3    29    28    1
     4    28    26    1
     5    18    19   ar
     6    20     2    1
     7    20    21   ar
     8     5     1    1
     9     5     6    1
    10     6     7    1
    11     7    11    1
    12     8    11    1
    13     8     9    1
    14     9     5    1
    15    13    10    1
    16    13    14    1
    17    13    15    1
    18    13    16    1
    19    22    17   ar
    20     2     1   am
    21    11    10   am
    22    23    26    1
    23    23    17    1
    24    17    18   ar
    25    19    20   ar
    26     1     3    2
    27    10    12    2
    28    21    22   ar
    29    23    24    2
    30    23    25    2
    31    26    27    1
    32     2     4    1
@<TRIPOS>MOLECULE
MolPort-008-387-160 16648348 CSSS00132982486 MCULE-2852355867 PubChem-17224440 ZINC000016648348 ZINC16648348
 31 32 0 0 0
SMALL
GASTEIGER

@<TRIPOS>ATOM
      1 C          10.3340   42.2451   10.3550 C.2     1  UNL1        0.2257
      2 N          10.5182   40.9126   10.8471 N.am    1  UNL1       -0.2839
      3 O          11.0943   42.7182    9.4677 O.2     1  UNL1       -0.2748
      4 H           9.8459   40.5800   11.4848 H       1  UNL1        0.1549
      5 C           9.1886   43.0566   10.8807 C.3     1  UNL1        0.0802
      6 C           8.5744   43.9814    9.8201 C.3     1  UNL1        0.0306
      7 C           7.7026   43.2036    8.8344 C.3     1  UNL1        0.0939
      8 C           7.2683   41.4430   10.5469 C.3     1  UNL1        0.0939
      9 C           8.1287   42.1867   11.5668 C.3     1  UNL1        0.0306
     10 C           5.3267   42.5254    9.3074 C.2     1  UNL1        0.2247
     11 N           6.7382   42.3892    9.5680 N.am    1  UNL1       -0.2795
     12 O           4.9501   43.2908    8.3761 O.2     1  UNL1       -0.2749
     13 C           4.2873   41.7745   10.1181 C.3     1  UNL1        0.0691
     14 C           3.8100   42.6309   11.2754 C.3     1  UNL1        0.0091
     15 C           3.0724   41.4153    9.2764 C.3     1  UNL1        0.0091
     16 C           4.8777   40.4842   10.6556 C.3     1  UNL1        0.0091
     17 C          13.6122   38.2044    9.8046 C.ar    1  UNL1        0.1220
     18 C          12.3487   38.1088    9.2118 C.ar    1  UNL1        0.0212
     19 C          11.3380   39.0079    9.5643 C.ar    1  UNL1        0.0160
     20 C          11.5820   40.0137   10.5056 C.ar    1  UNL1        0.0504
     21 C          12.8514   40.1062   11.0967 C.ar    1  UNL1        0.0160
     22 C          13.8616   39.2063   10.7470 C.ar    1  UNL1        0.0212
     23 S          14.8906   37.0843    9.3630 S.O2    1  UNL1        0.0602
     24 O          16.1517   37.8594    9.0993 O.2     1  UNL1       -0.1530
     25 O          15.1270   36.1173   10.4918 O.2     1  UNL1       -0.1530
     26 N          14.4604   36.2100    7.9289 N.3     1  UNL1       -0.1794
     27 H          13.8118   35.4584    8.1630 H       1  UNL1        0.1488
     28 C          15.6787   35.6521    7.3603 C.3     1  UNL1        0.0914
     29 C          15.8529   34.2091    7.8075 C.3     1  UNL1        0.0188
     30 C          16.1860   34.0438    5.3348 C.3     1  UNL1        0.0000
     31 C          15.9316   33.2689    6.6143 C.3     1  UNL1        0.0015
@<TRIPOS>BOND
     1    30    31    1
     2    31    29    1
     3    29    28    1
     4    28    26    1
     5    18    19   ar
     6    20     2    1
     7    20    21   ar
     8     5     1    1
     9     5     6    1
    10     6     7    1
    11     7    11    1
    12     8    11    1
    13     8     9    1
    14     9     5    1
    15    13    10    1
    16    13    14    1
    17    13    15    1
    18    13    16    1
    19    22    17   ar
    20     2     1   am
    21    11    10   am
    22    23    26    1
    23    23    17    1
    24    17    18   ar
    25    19    20   ar
    26     1     3    2
    27    10    12    2
    28    21    22   ar
    29    23    24    2
    30    23    25    2
    31    26    27    1
    32     2     4    1
@<TRIPOS>MOLECULE
MolPort-008-387-160 16648348 CSSS00132982486 MCULE-2852355867 PubChem-17224440 ZINC000016648348 ZINC16648348
 31 32 0 0 0
SMALL
GASTEIGER

@<TRIPOS>ATOM
      1 C          10.2643   43.0693    9.2977 C.2     1  UNL1        0.2257
      2 N          10.9952   42.1198    8.5129 N.am    1  UNL1       -0.2839
      3 O          10.7281   43.5022   10.3871 O.2     1  UNL1       -0.2748
      4 H          10.6109   41.8794    7.6390 H       1  UNL1        0.1549
      5 C           8.9535   43.5781    8.7784 C.3     1  UNL1        0.0802
      6 C           8.4361   42.7781    7.5743 C.3     1  UNL1        0.0306
      7 C           7.8578   41.4297    8.0032 C.3     1  UNL1        0.0939
      8 C           7.3336   42.3306   10.2691 C.3     1  UNL1        0.0939
      9 C           7.8986   43.6968    9.8847 C.3     1  UNL1        0.0306
     10 C           5.5344   41.1366    8.9219 C.2     1  UNL1        0.2247
     11 N           6.8809   41.6306    9.0693 N.am    1  UNL1       -0.2795
     12 O           5.2444   40.4533    7.9002 O.2     1  UNL1       -0.2749
     13 C           4.4625   41.4136    9.9591 C.3     1  UNL1        0.0691
     14 C           4.1172   42.8906    9.9708 C.3     1  UNL1        0.0091
     15 C           3.1852   40.6420    9.6649 C.3     1  UNL1        0.0091
     16 C           4.9490   40.9988   11.3352 C.3     1  UNL1        0.0091
     17 C          14.6222   40.2335    9.6448 C.ar    1  UNL1        0.1220
     18 C          13.4987   40.1801   10.4767 C.ar    1  UNL1        0.0212
     19 C          12.3096   40.8060   10.0914 C.ar    1  UNL1        0.0160
     20 C          12.2298   41.4838    8.8703 C.ar    1  UNL1        0.0504
     21 C          13.3591   41.5336    8.0387 C.ar    1  UNL1        0.0160
     22 C          14.5491   40.9107    8.4241 C.ar    1  UNL1        0.0212
     23 S          16.1183   39.4442   10.1165 S.O2    1  UNL1        0.0602
     24 O          15.9797   38.9321   11.5233 O.2     1  UNL1       -0.1530
     25 O          16.3938   38.2898    9.1909 O.2     1  UNL1       -0.1530
     26 N          17.4392   40.5657   10.0563 N.3     1  UNL1       -0.1794
     27 H          17.4135   41.1751   10.8738 H       1  UNL1        0.1488
     28 C          17.2999   41.3593    8.8440 C.3     1  UNL1        0.0914
     29 C          17.5372   42.8299    9.1500 C.3     1  UNL1        0.0188
     30 C          16.5953   43.2225    6.8670 C.3     1  UNL1        0.0000
     31 C          17.6504   43.6467    7.8717 C.3     1  UNL1        0.0015
@<TRIPOS>BOND
     1    30    31    1
     2    31    29    1
     3    29    28    1
     4    28    26    1
     5    18    19   ar
     6    20     2    1
     7    20    21   ar
     8     5     1    1
     9     5     6    1
    10     6     7    1
    11     7    11    1
    12     8    11    1
    13     8     9    1
    14     9     5    1
    15    13    10    1
    16    13    14    1
    17    13    15    1
    18    13    16    1
    19    22    17   ar
    20     2     1   am
    21    11    10   am
    22    23    26    1
    23    23    17    1
    24    17    18   ar
    25    19    20   ar
    26     1     3    2
    27    10    12    2
    28    21    22   ar
    29    23    24    2
    30    23    25    2
    31    26    27    1
    32     2     4    1
@<TRIPOS>MOLECULE
MolPort-008-387-160 16648348 CSSS00132982486 MCULE-2852355867 PubChem-17224440 ZINC000016648348 ZINC16648348
 31 32 0 0 0
SMALL
GASTEIGER

@<TRIPOS>ATOM
      1 C          11.0657   41.2449   10.3470 C.2     1  UNL1        0.2257
      2 N          11.8273   40.2239   11.0021 N.am    1  UNL1       -0.2839
      3 O          11.5723   41.9391    9.4247 O.2     1  UNL1       -0.2748
      4 H          11.3496   39.6704   11.6614 H       1  UNL1        0.1549
      5 C           9.6346   41.4452   10.7452 C.3     1  UNL1        0.0802
      6 C           9.3555   42.8556   11.2839 C.3     1  UNL1        0.0306
      7 C           9.2908   43.8846   10.1553 C.3     1  UNL1        0.0939
      8 C           8.6130   42.1181    8.5302 C.3     1  UNL1        0.0939
      9 C           8.6615   41.0551    9.6263 C.3     1  UNL1        0.0306
     10 C           7.2552   44.2619    8.7262 C.2     1  UNL1        0.2247
     11 N           8.3611   43.4279    9.1265 N.am    1  UNL1       -0.2795
     12 O           7.1600   45.4230    9.2136 O.2     1  UNL1       -0.2749
     13 C           6.2091   43.7832    7.7373 C.3     1  UNL1        0.0691
     14 C           5.6117   42.4697    8.2048 C.3     1  UNL1        0.0091
     15 C           5.0725   44.7840    7.5954 C.3     1  UNL1        0.0091
     16 C           6.8344   43.5936    6.3678 C.3     1  UNL1        0.0091
     17 C          15.9227   39.3583   10.3142 C.ar    1  UNL1        0.1220
     18 C          15.1739   40.0690    9.3702 C.ar    1  UNL1        0.0212
     19 C          13.8251   40.3477    9.6095 C.ar    1  UNL1        0.0160
     20 C          13.2147   39.9259   10.7955 C.ar    1  UNL1        0.0504
     21 C          13.9703   39.2142   11.7400 C.ar    1  UNL1        0.0160
     22 C          15.3179   38.9327   11.5006 C.ar    1  UNL1        0.0212
     23 S          17.6195   39.0097   10.0262 S.O2    1  UNL1        0.0602
     24 O          18.3303   38.9095   11.3472 O.2     1  UNL1       -0.1530
     25 O          17.7488   37.7031    9.2905 O.2     1  UNL1       -0.1530
     26 N          18.3477   40.2768    9.0931 N.3     1  UNL1       -0.1794
     27 H          19.2326   40.5546    9.5176 H       1  UNL1        0.1488
     28 C          17.4307   41.4071    9.0777 C.3     1  UNL1        0.0914
     29 C          17.8511   42.4087    8.0133 C.3     1  UNL1        0.0188
     30 C          16.3401   44.2390    7.2262 C.3     1  UNL1        0.0000
     31 C          17.3005   43.7946    8.3136 C.3     1  UNL1        0.0015
@<TRIPOS>BOND
     1    30    31    1
     2    31    29    1
     3    29    28    1
     4    28    26    1
     5    18    19   ar
     6    20     2    1
     7    20    21   ar
     8     5     1    1
     9     5     6    1
    10     6     7    1
    11     7    11    1
    12     8    11    1
    13     8     9    1
    14     9     5    1
    15    13    10    1
    16    13    14    1
    17    13    15    1
    18    13    16    1
    19    22    17   ar
    20     2     1   am
    21    11    10   am
    22    23    26    1
    23    23    17    1
    24    17    18   ar
    25    19    20   ar
    26     1     3    2
    27    10    12    2
    28    21    22   ar
    29    23    24    2
    30    23    25    2
    31    26    27    1
    32     2     4    1
