@<TRIPOS>MOLECULE
MolPort-002-761-544 2809624 CSSS00132992731 MCULE-2379035670 PubChem-19584150 ZINC000002809624 ZINC02809624
 32 36 0 0 0
SMALL
GASTEIGER

@<TRIPOS>ATOM
      1 C          12.6972   41.0044    9.0258 C.ar    1  UNL1        0.1370
      2 C          10.9644   42.0169   10.3228 C.ar    1  UNL1        0.1869
      3 N          12.3609   42.2379    8.5897 N.ar    1  UNL1       -0.1420
      4 N          11.3920   42.8013    9.3088 N.ar    1  UNL1       -0.1256
      5 S          11.7956   40.5556   10.3768 S.2     1  UNL1       -0.0328
      6 N           9.9404   42.3867   11.2507 N.pl3   1  UNL1       -0.2754
      7 H          10.1971   42.9531   12.0140 H       1  UNL1        0.1556
      8 C           8.5696   41.9913   11.1473 C.ar    1  UNL1        0.1549
      9 C           6.5446   41.3792   11.6446 C.ar    1  UNL1        0.0984
     10 C           7.7621   41.6932   12.2295 C.ar    1  UNL1        0.0564
     11 N           7.8999   41.8690    9.9893 N.ar    1  UNL1       -0.1537
     12 N           6.6768   41.4918   10.3098 N.ar    1  UNL1       -0.2437
     13 C           5.6154   41.2754    9.3402 C.3     1  UNL1        0.1539
     14 C           5.1941   42.5731    8.7405 C.ar    1  UNL1        0.0021
     15 C           3.9632   43.1385    9.0920 C.ar    1  UNL1       -0.0023
     16 C           3.5577   44.3464    8.5156 C.ar    1  UNL1       -0.0003
     17 C           4.3801   44.9873    7.5836 C.ar    1  UNL1       -0.0000
     18 C           5.6068   44.4189    7.2256 C.ar    1  UNL1       -0.0003
     19 C           6.0126   43.2106    7.8013 C.ar    1  UNL1       -0.0023
     20 C          13.7909   40.1911    8.4254 C.3     1  UNL1        0.1810
     21 C          16.4106   42.5373    7.9459 C.ar    1  UNL1        0.1733
     22 C          16.1380   40.7350    9.1166 C.ar    1  UNL1        0.0571
     23 C          17.0648   41.7352    8.8712 C.ar    1  UNL1        0.0391
     24 N          15.1788   42.0612    7.6767 N.ar    1  UNL1       -0.1652
     25 N          15.0251   40.9629    8.3921 N.ar    1  UNL1       -0.2483
     26 F          16.0060   44.7578    7.2855 F       1  UNL1       -0.1643
     27 F          18.0478   44.2366    8.0819 F       1  UNL1       -0.1643
     28 F          17.4130   43.5020    6.0492 F       1  UNL1       -0.1643
     29 C          16.9792   43.7770    7.3329 C.3     1  UNL1        0.4365
     30 C          16.3042   39.6206   10.1053 C.3     1  UNL1        0.0400
     31 C          14.9958   39.3829   10.8377 C.3     1  UNL1        0.0063
     32 C          15.4189   38.4445    9.7309 C.3     1  UNL1        0.0063
@<TRIPOS>BOND
     1    29    26    1
     2    29    27    1
     3    29    28    1
     4    29    21    1
     5    20    25    1
     6    20     1    1
     7     1     5   ar
     8     2     6    1
     9     2     5   ar
    10    13    12    1
    11    13    14    1
    12    15    16   ar
    13    17    18   ar
    14    19    14   ar
    15    10     8   ar
    16    23    21   ar
    17    30    22    1
    18    30    31    1
    19    31    32    1
    20    32    30    1
    21    25    24   ar
    22    25    22   ar
    23     3     4   ar
    24     6     8    1
    25    12    11   ar
    26    12     9   ar
    27    21    24   ar
    28     1     3   ar
    29     2     4   ar
    30     8    11   ar
    31    14    15   ar
    32    16    17   ar
    33    18    19   ar
    34     9    10   ar
    35    22    23   ar
    36     6     7    1
@<TRIPOS>MOLECULE
MolPort-002-761-544 2809624 CSSS00132992731 MCULE-2379035670 PubChem-19584150 ZINC000002809624 ZINC02809624
 32 36 0 0 0
SMALL
GASTEIGER

@<TRIPOS>ATOM
      1 C          11.4512   41.8259    7.1050 C.ar    1  UNL1        0.1370
      2 C          13.4942   43.0476    6.8965 C.ar    1  UNL1        0.1869
      3 N          11.7478   42.1480    5.8271 N.ar    1  UNL1       -0.1420
      4 N          12.8837   42.8330    5.7100 N.ar    1  UNL1       -0.1256
      5 S          12.6325   42.3739    8.1743 S.2     1  UNL1       -0.0328
      6 N          14.7318   43.7482    7.0506 N.pl3   1  UNL1       -0.2754
      7 H          14.7874   44.6635    6.6923 H       1  UNL1        0.1556
      8 C          15.8943   43.2119    7.6887 C.ar    1  UNL1        0.1549
      9 C          17.8725   43.0123    8.5661 C.ar    1  UNL1        0.0984
     10 C          17.0475   43.9331    7.9380 C.ar    1  UNL1        0.0564
     11 N          16.0037   41.9476    8.1289 N.ar    1  UNL1       -0.1537
     12 N          17.2106   41.8433    8.6520 N.ar    1  UNL1       -0.2437
     13 C          17.7226   40.6330    9.2735 C.3     1  UNL1        0.1539
     14 C          16.6465   39.9620   10.0564 C.ar    1  UNL1        0.0021
     15 C          15.3056   40.1435    9.6994 C.ar    1  UNL1       -0.0023
     16 C          14.2937   39.5302   10.4446 C.ar    1  UNL1       -0.0003
     17 C          14.6212   38.7392   11.5505 C.ar    1  UNL1       -0.0000
     18 C          15.9605   38.5639   11.9130 C.ar    1  UNL1       -0.0003
     19 C          16.9730   39.1774   11.1684 C.ar    1  UNL1       -0.0023
     20 C          10.2648   41.0132    7.4928 C.3     1  UNL1        0.1810
     21 C           9.7501   38.9520    4.6496 C.ar    1  UNL1        0.1733
     22 C           8.4896   40.1305    5.9593 C.ar    1  UNL1        0.0571
     23 C           8.4185   39.2771    4.8701 C.ar    1  UNL1        0.0391
     24 N          10.5514   39.5509    5.5528 N.ar    1  UNL1       -0.1652
     25 N           9.7740   40.2677    6.3424 N.ar    1  UNL1       -0.2483
     26 F           9.6515   38.3951    2.3670 F       1  UNL1       -0.1643
     27 F          11.6167   38.1509    3.4409 F       1  UNL1       -0.1643
     28 F           9.9163   36.7378    3.8731 F       1  UNL1       -0.1643
     29 C          10.2429   38.0460    3.5669 C.3     1  UNL1        0.4365
     30 C           7.3146   40.7363    6.6661 C.3     1  UNL1        0.0400
     31 C           7.6483   40.9469    8.1320 C.3     1  UNL1        0.0063
     32 C           7.6637   42.1219    7.1813 C.3     1  UNL1        0.0063
@<TRIPOS>BOND
     1    29    26    1
     2    29    27    1
     3    29    28    1
     4    29    21    1
     5    20    25    1
     6    20     1    1
     7     1     5   ar
     8     2     6    1
     9     2     5   ar
    10    13    12    1
    11    13    14    1
    12    15    16   ar
    13    17    18   ar
    14    19    14   ar
    15    10     8   ar
    16    23    21   ar
    17    30    22    1
    18    30    31    1
    19    31    32    1
    20    32    30    1
    21    25    24   ar
    22    25    22   ar
    23     3     4   ar
    24     6     8    1
    25    12    11   ar
    26    12     9   ar
    27    21    24   ar
    28     1     3   ar
    29     2     4   ar
    30     8    11   ar
    31    14    15   ar
    32    16    17   ar
    33    18    19   ar
    34     9    10   ar
    35    22    23   ar
    36     6     7    1
@<TRIPOS>MOLECULE
MolPort-002-761-544 2809624 CSSS00132992731 MCULE-2379035670 PubChem-19584150 ZINC000002809624 ZINC02809624
 32 36 0 0 0
SMALL
GASTEIGER

@<TRIPOS>ATOM
      1 C          12.4726   41.1244    9.4806 C.ar    1  UNL1        0.1370
      2 C          10.6203   42.1768   10.5627 C.ar    1  UNL1        0.1869
      3 N          12.0012   40.4176   10.5309 N.ar    1  UNL1       -0.1420
      4 N          10.9719   41.0054   11.1377 N.ar    1  UNL1       -0.1256
      5 S          11.5917   42.5403    9.2386 S.2     1  UNL1       -0.0328
      6 N           9.5426   43.0033   11.0121 N.pl3   1  UNL1       -0.2754
      7 H           9.5774   43.3379   11.9373 H       1  UNL1        0.1556
      8 C           8.4180   43.3775   10.2113 C.ar    1  UNL1        0.1549
      9 C           7.0695   44.4908    8.9209 C.ar    1  UNL1        0.0984
     10 C           8.2957   44.5916    9.5607 C.ar    1  UNL1        0.0564
     11 N           7.3501   42.5938    9.9884 N.ar    1  UNL1       -0.1537
     12 N           6.5412   43.2869    9.2097 N.ar    1  UNL1       -0.2437
     13 C           5.2742   42.7837    8.7050 C.3     1  UNL1        0.1539
     14 C           4.4988   42.1455    9.8061 C.ar    1  UNL1        0.0021
     15 C           3.4506   42.8424   10.4178 C.ar    1  UNL1       -0.0023
     16 C           2.7345   42.2525   11.4642 C.ar    1  UNL1       -0.0003
     17 C           3.0691   40.9675   11.9032 C.ar    1  UNL1       -0.0000
     18 C           4.1216   40.2734   11.2980 C.ar    1  UNL1       -0.0003
     19 C           4.8385   40.8631   10.2518 C.ar    1  UNL1       -0.0023
     20 C          13.5813   40.6530    8.6048 C.3     1  UNL1        0.1810
     21 C          14.9535   43.2922    6.6685 C.ar    1  UNL1        0.1733
     22 C          13.3579   41.8491    6.4136 C.ar    1  UNL1        0.0571
     23 C          14.0029   42.8774    5.7455 C.ar    1  UNL1        0.0391
     24 N          14.8921   42.5523    7.7934 N.ar    1  UNL1       -0.1652
     25 N          13.9158   41.6798    7.6282 N.ar    1  UNL1       -0.2483
     26 F          15.2584   45.5432    6.0603 F       1  UNL1       -0.1643
     27 F          16.6284   44.6637    7.6173 F       1  UNL1       -0.1643
     28 F          16.8291   44.0399    5.4620 F       1  UNL1       -0.1643
     29 C          15.9326   44.4011    6.4506 C.3     1  UNL1        0.4365
     30 C          12.2694   40.9910    5.8428 C.3     1  UNL1        0.0400
     31 C          11.0953   40.9419    6.8039 C.3     1  UNL1        0.0063
     32 C          11.0257   41.8212    5.5764 C.3     1  UNL1        0.0063
@<TRIPOS>BOND
     1    29    26    1
     2    29    27    1
     3    29    28    1
     4    29    21    1
     5    20    25    1
     6    20     1    1
     7     1     5   ar
     8     2     6    1
     9     2     5   ar
    10    13    12    1
    11    13    14    1
    12    15    16   ar
    13    17    18   ar
    14    19    14   ar
    15    10     8   ar
    16    23    21   ar
    17    30    22    1
    18    30    31    1
    19    31    32    1
    20    32    30    1
    21    25    24   ar
    22    25    22   ar
    23     3     4   ar
    24     6     8    1
    25    12    11   ar
    26    12     9   ar
    27    21    24   ar
    28     1     3   ar
    29     2     4   ar
    30     8    11   ar
    31    14    15   ar
    32    16    17   ar
    33    18    19   ar
    34     9    10   ar
    35    22    23   ar
    36     6     7    1
@<TRIPOS>MOLECULE
MolPort-002-761-544 2809624 CSSS00132992731 MCULE-2379035670 PubChem-19584150 ZINC000002809624 ZINC02809624
 32 36 0 0 0
SMALL
GASTEIGER

@<TRIPOS>ATOM
      1 C          11.1179   41.3410    7.2067 C.ar    1  UNL1        0.1370
      2 C          13.1785   42.4827    6.8064 C.ar    1  UNL1        0.1869
      3 N          11.4417   41.4062    5.8968 N.ar    1  UNL1       -0.1420
      4 N          12.5875   42.0463    5.6720 N.ar    1  UNL1       -0.1256
      5 S          12.2856   42.0771    8.1729 S.2     1  UNL1       -0.0328
      6 N          14.4212   43.1901    6.8466 N.pl3   1  UNL1       -0.2754
      7 H          14.4791   44.0419    6.3564 H       1  UNL1        0.1556
      8 C          15.5855   42.7465    7.5492 C.ar    1  UNL1        0.1549
      9 C          17.5736   42.6608    8.4227 C.ar    1  UNL1        0.0984
     10 C          16.7522   43.4800    7.6628 C.ar    1  UNL1        0.0564
     11 N          15.6839   41.5695    8.1889 N.ar    1  UNL1       -0.1537
     12 N          16.8969   41.5325    8.7069 N.ar    1  UNL1       -0.2437
     13 C          17.4012   40.4318    9.5115 C.3     1  UNL1        0.1539
     14 C          16.2943   39.8239   10.3030 C.ar    1  UNL1        0.0021
     15 C          14.9644   40.1353    9.9983 C.ar    1  UNL1       -0.0023
     16 C          13.9253   39.5808   10.7522 C.ar    1  UNL1       -0.0003
     17 C          14.2151   38.7187   11.8146 C.ar    1  UNL1       -0.0000
     18 C          15.5441   38.4133   12.1250 C.ar    1  UNL1       -0.0003
     19 C          16.5838   38.9679   11.3717 C.ar    1  UNL1       -0.0023
     20 C           9.9152   40.6285    7.7207 C.3     1  UNL1        0.1810
     21 C           7.5667   43.0856    8.7430 C.ar    1  UNL1        0.1733
     22 C           8.8116   41.6201    9.7409 C.ar    1  UNL1        0.0571
     23 C           7.8539   42.5856   10.0060 C.ar    1  UNL1        0.0391
     24 N           8.2847   42.4507    7.7955 N.ar    1  UNL1       -0.1652
     25 N           9.0408   41.5635    8.4144 N.ar    1  UNL1       -0.2483
     26 F           5.3187   43.7683    8.8456 F       1  UNL1       -0.1643
     27 F           6.9208   45.3231    9.1466 F       1  UNL1       -0.1643
     28 F           6.5753   44.4465    7.1004 F       1  UNL1       -0.1643
     29 C           6.5817   44.1733    8.4558 C.3     1  UNL1        0.4365
     30 C           9.4320   40.7101   10.7577 C.3     1  UNL1        0.0400
     31 C          10.5447   41.4386   11.4897 C.3     1  UNL1        0.0063
     32 C           9.2031   41.2485   12.1595 C.3     1  UNL1        0.0063
@<TRIPOS>BOND
     1    29    26    1
     2    29    27    1
     3    29    28    1
     4    29    21    1
     5    20    25    1
     6    20     1    1
     7     1     5   ar
     8     2     6    1
     9     2     5   ar
    10    13    12    1
    11    13    14    1
    12    15    16   ar
    13    17    18   ar
    14    19    14   ar
    15    10     8   ar
    16    23    21   ar
    17    30    22    1
    18    30    31    1
    19    31    32    1
    20    32    30    1
    21    25    24   ar
    22    25    22   ar
    23     3     4   ar
    24     6     8    1
    25    12    11   ar
    26    12     9   ar
    27    21    24   ar
    28     1     3   ar
    29     2     4   ar
    30     8    11   ar
    31    14    15   ar
    32    16    17   ar
    33    18    19   ar
    34     9    10   ar
    35    22    23   ar
    36     6     7    1
@<TRIPOS>MOLECULE
MolPort-002-761-544 2809624 CSSS00132992731 MCULE-2379035670 PubChem-19584150 ZINC000002809624 ZINC02809624
 32 36 0 0 0
SMALL
GASTEIGER

@<TRIPOS>ATOM
      1 C          13.2999   40.3615    9.6222 C.ar    1  UNL1        0.1370
      2 C          11.5390   40.8066   11.1749 C.ar    1  UNL1        0.1869
      3 N          13.3738   39.6042   10.7384 N.ar    1  UNL1       -0.1420
      4 N          12.3957   39.8547   11.6067 N.ar    1  UNL1       -0.1256
      5 S          11.9649   41.3890    9.6555 S.2     1  UNL1       -0.0328
      6 N          10.3973   41.2563   11.9102 N.pl3   1  UNL1       -0.2754
      7 H          10.5284   41.5007   12.8548 H       1  UNL1        0.1556
      8 C           9.0786   41.3757   11.3691 C.ar    1  UNL1        0.1549
      9 C           6.9480   41.7506   11.1619 C.ar    1  UNL1        0.0984
     10 C           7.9736   41.7810   12.0949 C.ar    1  UNL1        0.0564
     11 N           8.7558   41.1164   10.0912 N.ar    1  UNL1       -0.1537
     12 N           7.4603   41.3432    9.9857 N.ar    1  UNL1       -0.2437
     13 C           6.7125   41.2090    8.7463 C.3     1  UNL1        0.1539
     14 C           5.8617   42.4126    8.5259 C.ar    1  UNL1        0.0021
     15 C           6.3483   43.4830    7.7670 C.ar    1  UNL1       -0.0023
     16 C           5.5587   44.6212    7.5753 C.ar    1  UNL1       -0.0003
     17 C           4.2841   44.6922    8.1464 C.ar    1  UNL1       -0.0000
     18 C           3.8001   43.6264    8.9117 C.ar    1  UNL1       -0.0003
     19 C           4.5895   42.4880    9.1042 C.ar    1  UNL1       -0.0023
     20 C          14.2432   40.2303    8.4770 C.3     1  UNL1        0.1810
     21 C          14.6572   43.1691    6.5304 C.ar    1  UNL1        0.1733
     22 C          13.1096   41.6719    6.7685 C.ar    1  UNL1        0.0571
     23 C          13.4074   42.8131    6.0414 C.ar    1  UNL1        0.0391
     24 N          15.0800   42.2935    7.4636 N.ar    1  UNL1       -0.1652
     25 N          14.1292   41.3888    7.6025 N.ar    1  UNL1       -0.2483
     26 F          16.2362   44.8088    7.1201 F       1  UNL1       -0.1643
     27 F          16.2600   44.0138    5.0125 F       1  UNL1       -0.1643
     28 F          14.5868   45.3634    5.6860 F       1  UNL1       -0.1643
     29 C          15.4476   44.3554    6.0790 C.3     1  UNL1        0.4365
     30 C          11.8857   40.8246    6.5921 C.3     1  UNL1        0.0400
     31 C          10.7426   41.6745    6.0673 C.3     1  UNL1        0.0063
     32 C          11.4931   40.7604    5.1262 C.3     1  UNL1        0.0063
@<TRIPOS>BOND
     1    29    26    1
     2    29    27    1
     3    29    28    1
     4    29    21    1
     5    20    25    1
     6    20     1    1
     7     1     5   ar
     8     2     6    1
     9     2     5   ar
    10    13    12    1
    11    13    14    1
    12    15    16   ar
    13    17    18   ar
    14    19    14   ar
    15    10     8   ar
    16    23    21   ar
    17    30    22    1
    18    30    31    1
    19    31    32    1
    20    32    30    1
    21    25    24   ar
    22    25    22   ar
    23     3     4   ar
    24     6     8    1
    25    12    11   ar
    26    12     9   ar
    27    21    24   ar
    28     1     3   ar
    29     2     4   ar
    30     8    11   ar
    31    14    15   ar
    32    16    17   ar
    33    18    19   ar
    34     9    10   ar
    35    22    23   ar
    36     6     7    1
@<TRIPOS>MOLECULE
MolPort-002-761-544 2809624 CSSS00132992731 MCULE-2379035670 PubChem-19584150 ZINC000002809624 ZINC02809624
 32 36 0 0 0
SMALL
GASTEIGER

@<TRIPOS>ATOM
      1 C          12.7597   41.5435    8.6678 C.ar    1  UNL1        0.1370
      2 C          10.9695   42.6678    9.7820 C.ar    1  UNL1        0.1869
      3 N          12.2959   40.8672    9.7414 N.ar    1  UNL1       -0.1420
      4 N          11.3014   41.4950   10.3660 N.ar    1  UNL1       -0.1256
      5 S          11.9152   42.9816    8.4269 S.2     1  UNL1       -0.0328
      6 N           9.9296   43.5332   10.2466 N.pl3   1  UNL1       -0.2754
      7 H          10.1029   44.0621   11.0587 H       1  UNL1        0.1556
      8 C           8.6555   43.6839    9.6140 C.ar    1  UNL1        0.1549
      9 C           6.9313   44.5327    8.5993 C.ar    1  UNL1        0.0984
     10 C           8.1725   44.8785    9.1121 C.ar    1  UNL1        0.0564
     11 N           7.7789   42.6840    9.4243 N.ar    1  UNL1       -0.1537
     12 N           6.7382   43.2179    8.8136 N.ar    1  UNL1       -0.2437
     13 C           5.5684   42.4627    8.3962 C.3     1  UNL1        0.1539
     14 C           4.7888   42.0216    9.5873 C.ar    1  UNL1        0.0021
     15 C           5.2538   40.9613   10.3734 C.ar    1  UNL1       -0.0023
     16 C           4.5138   40.5336   11.4803 C.ar    1  UNL1       -0.0003
     17 C           3.3059   41.1622   11.7990 C.ar    1  UNL1       -0.0000
     18 C           2.8363   42.2165   11.0093 C.ar    1  UNL1       -0.0003
     19 C           3.5756   42.6444    9.9019 C.ar    1  UNL1       -0.0023
     20 C          13.8296   41.0255    7.7705 C.3     1  UNL1        0.1810
     21 C          16.6253   40.0333    9.7192 C.ar    1  UNL1        0.1733
     22 C          16.1199   41.7449    8.4912 C.ar    1  UNL1        0.0571
     23 C          17.1554   41.2289    9.2535 C.ar    1  UNL1        0.0391
     24 N          15.3755   39.8425    9.2521 N.ar    1  UNL1       -0.1652
     25 N          15.0774   40.8915    8.5088 N.ar    1  UNL1       -0.2483
     26 F          16.6989   39.0029   11.8318 F       1  UNL1       -0.1643
     27 F          17.3538   37.8075   10.0382 F       1  UNL1       -0.1643
     28 F          18.6433   39.4907   10.7991 F       1  UNL1       -0.1643
     29 C          17.3407   39.0677   10.6090 C.3     1  UNL1        0.4365
     30 C          16.1780   43.0111    7.6909 C.3     1  UNL1        0.0400
     31 C          17.3401   43.8658    8.1636 C.3     1  UNL1        0.0063
     32 C          17.4641   43.0693    6.8850 C.3     1  UNL1        0.0063
@<TRIPOS>BOND
     1    29    26    1
     2    29    27    1
     3    29    28    1
     4    29    21    1
     5    20    25    1
     6    20     1    1
     7     1     5   ar
     8     2     6    1
     9     2     5   ar
    10    13    12    1
    11    13    14    1
    12    15    16   ar
    13    17    18   ar
    14    19    14   ar
    15    10     8   ar
    16    23    21   ar
    17    30    22    1
    18    30    31    1
    19    31    32    1
    20    32    30    1
    21    25    24   ar
    22    25    22   ar
    23     3     4   ar
    24     6     8    1
    25    12    11   ar
    26    12     9   ar
    27    21    24   ar
    28     1     3   ar
    29     2     4   ar
    30     8    11   ar
    31    14    15   ar
    32    16    17   ar
    33    18    19   ar
    34     9    10   ar
    35    22    23   ar
    36     6     7    1
@<TRIPOS>MOLECULE
MolPort-002-761-544 2809624 CSSS00132992731 MCULE-2379035670 PubChem-19584150 ZINC000002809624 ZINC02809624
 32 36 0 0 0
SMALL
GASTEIGER

@<TRIPOS>ATOM
      1 C          13.4993   40.3175    9.8959 C.ar    1  UNL1        0.1370
      2 C          11.5191   40.8367   11.1284 C.ar    1  UNL1        0.1869
      3 N          13.3971   39.6244   11.0509 N.ar    1  UNL1       -0.1420
      4 N          12.2963   39.9163   11.7410 N.ar    1  UNL1       -0.1256
      5 S          12.1773   41.3361    9.6633 S.2     1  UNL1       -0.0328
      6 N          10.2777   41.3190   11.6507 N.pl3   1  UNL1       -0.2754
      7 H          10.0680   41.1180   12.5914 H       1  UNL1        0.1556
      8 C           9.3199   42.0727   10.9020 C.ar    1  UNL1        0.1549
      9 C           8.2063   43.7175   10.0203 C.ar    1  UNL1        0.0984
     10 C           9.2735   43.4543   10.8658 C.ar    1  UNL1        0.0564
     11 N           8.3562   41.5311   10.1389 N.ar    1  UNL1       -0.1537
     12 N           7.6879   42.5424    9.6175 N.ar    1  UNL1       -0.2437
     13 C           6.5726   42.3884    8.6979 C.3     1  UNL1        0.1539
     14 C           6.9434   41.4633    7.5899 C.ar    1  UNL1        0.0021
     15 C           6.0889   40.4107    7.2428 C.ar    1  UNL1       -0.0023
     16 C           6.4442   39.5302    6.2162 C.ar    1  UNL1       -0.0003
     17 C           7.6564   39.6981    5.5393 C.ar    1  UNL1       -0.0000
     18 C           8.5148   40.7448    5.8908 C.ar    1  UNL1       -0.0003
     19 C           8.1602   41.6255    6.9178 C.ar    1  UNL1       -0.0023
     20 C          14.6090   40.1290    8.9205 C.3     1  UNL1        0.1810
     21 C          15.6201   43.0247    7.1345 C.ar    1  UNL1        0.1733
     22 C          13.8591   41.7636    7.1747 C.ar    1  UNL1        0.0571
     23 C          14.3840   42.8674    6.5222 C.ar    1  UNL1        0.0391
     24 N          15.8237   42.0732    8.0671 N.ar    1  UNL1       -0.1652
     25 N          14.7446   41.3137    8.0850 N.ar    1  UNL1       -0.2483
     26 F          17.3606   44.3947    7.9243 F       1  UNL1       -0.1643
     27 F          17.4574   43.6684    5.7941 F       1  UNL1       -0.1643
     28 F          15.9435   45.2296    6.3818 F       1  UNL1       -0.1643
     29 C          16.6109   44.0942    6.8023 C.3     1  UNL1        0.4365
     30 C          12.5488   41.1087    6.8566 C.3     1  UNL1        0.0400
     31 C          11.5141   42.1661    6.5162 C.3     1  UNL1        0.0063
     32 C          12.1650   41.3678    5.4100 C.3     1  UNL1        0.0063
@<TRIPOS>BOND
     1    29    26    1
     2    29    27    1
     3    29    28    1
     4    29    21    1
     5    20    25    1
     6    20     1    1
     7     1     5   ar
     8     2     6    1
     9     2     5   ar
    10    13    12    1
    11    13    14    1
    12    15    16   ar
    13    17    18   ar
    14    19    14   ar
    15    10     8   ar
    16    23    21   ar
    17    30    22    1
    18    30    31    1
    19    31    32    1
    20    32    30    1
    21    25    24   ar
    22    25    22   ar
    23     3     4   ar
    24     6     8    1
    25    12    11   ar
    26    12     9   ar
    27    21    24   ar
    28     1     3   ar
    29     2     4   ar
    30     8    11   ar
    31    14    15   ar
    32    16    17   ar
    33    18    19   ar
    34     9    10   ar
    35    22    23   ar
    36     6     7    1
@<TRIPOS>MOLECULE
MolPort-002-761-544 2809624 CSSS00132992731 MCULE-2379035670 PubChem-19584150 ZINC000002809624 ZINC02809624
 32 36 0 0 0
SMALL
GASTEIGER

@<TRIPOS>ATOM
      1 C          12.7792   41.6104    8.5250 C.ar    1  UNL1        0.1370
      2 C          11.0849   41.8379   10.1946 C.ar    1  UNL1        0.1869
      3 N          12.1287   42.7926    8.4621 N.ar    1  UNL1       -0.1420
      4 N          11.1810   42.9187    9.3890 N.ar    1  UNL1       -0.1256
      5 S          12.2046   40.6512    9.7856 S.2     1  UNL1       -0.0328
      6 N          10.1560   41.7192   11.2760 N.pl3   1  UNL1       -0.2754
      7 H          10.5171   41.7208   12.1919 H       1  UNL1        0.1556
      8 C           8.7393   41.5985   11.1198 C.ar    1  UNL1        0.1549
      9 C           6.6070   41.5157   11.5314 C.ar    1  UNL1        0.0984
     10 C           7.8321   41.6798   12.1602 C.ar    1  UNL1        0.0564
     11 N           8.1191   41.3994    9.9450 N.ar    1  UNL1       -0.1537
     12 N           6.8286   41.3460   10.2146 N.ar    1  UNL1       -0.2437
     13 C           5.7966   41.1715    9.2058 C.3     1  UNL1        0.1539
     14 C           5.3564   42.4969    8.6856 C.ar    1  UNL1        0.0021
     15 C           4.1125   43.0168    9.0608 C.ar    1  UNL1       -0.0023
     16 C           3.6895   44.2515    8.5585 C.ar    1  UNL1       -0.0003
     17 C           4.5076   44.9648    7.6766 C.ar    1  UNL1       -0.0000
     18 C           5.7473   44.4423    7.2946 C.ar    1  UNL1       -0.0003
     19 C           6.1706   43.2073    7.7963 C.ar    1  UNL1       -0.0023
     20 C          13.9180   41.2513    7.6347 C.3     1  UNL1        0.1810
     21 C          16.5727   40.0959    9.6877 C.ar    1  UNL1        0.1733
     22 C          16.2038   41.8499    8.4709 C.ar    1  UNL1        0.0571
     23 C          17.1784   41.2730    9.2690 C.ar    1  UNL1        0.0391
     24 N          15.3382   39.9721    9.1615 N.ar    1  UNL1       -0.1652
     25 N          15.1232   41.0464    8.4255 N.ar    1  UNL1       -0.2483
     26 F          18.5322   39.4016   10.7870 F       1  UNL1       -0.1643
     27 F          16.5559   39.0635   11.8138 F       1  UNL1       -0.1643
     28 F          17.1126   37.8298   10.0131 F       1  UNL1       -0.1643
     29 C          17.2014   39.0830   10.5903 C.3     1  UNL1        0.4365
     30 C          16.3569   43.1252    7.6981 C.3     1  UNL1        0.0400
     31 C          17.4394   43.9824    8.3290 C.3     1  UNL1        0.0063
     32 C          17.7378   43.2009    7.0700 C.3     1  UNL1        0.0063
@<TRIPOS>BOND
     1    29    26    1
     2    29    27    1
     3    29    28    1
     4    29    21    1
     5    20    25    1
     6    20     1    1
     7     1     5   ar
     8     2     6    1
     9     2     5   ar
    10    13    12    1
    11    13    14    1
    12    15    16   ar
    13    17    18   ar
    14    19    14   ar
    15    10     8   ar
    16    23    21   ar
    17    30    22    1
    18    30    31    1
    19    31    32    1
    20    32    30    1
    21    25    24   ar
    22    25    22   ar
    23     3     4   ar
    24     6     8    1
    25    12    11   ar
    26    12     9   ar
    27    21    24   ar
    28     1     3   ar
    29     2     4   ar
    30     8    11   ar
    31    14    15   ar
    32    16    17   ar
    33    18    19   ar
    34     9    10   ar
    35    22    23   ar
    36     6     7    1
@<TRIPOS>MOLECULE
MolPort-002-761-544 2809624 CSSS00132992731 MCULE-2379035670 PubChem-19584150 ZINC000002809624 ZINC02809624
 32 36 0 0 0
SMALL
GASTEIGER

@<TRIPOS>ATOM
      1 C          10.8453   41.5739    8.0700 C.ar    1  UNL1        0.1370
      2 C          12.7803   42.5410    7.0548 C.ar    1  UNL1        0.1869
      3 N          10.8840   41.3999    6.7309 N.ar    1  UNL1       -0.1420
      4 N          11.9595   41.9425    6.1633 N.ar    1  UNL1       -0.1256
      5 S          12.1957   42.4139    8.6268 S.2     1  UNL1       -0.0328
      6 N          14.0071   43.1910    6.7101 N.pl3   1  UNL1       -0.2754
      7 H          13.9818   43.8667    5.9945 H       1  UNL1        0.1556
      8 C          15.2679   42.9280    7.3323 C.ar    1  UNL1        0.1549
      9 C          17.3029   43.1386    8.0653 C.ar    1  UNL1        0.0984
     10 C          16.3234   43.8209    7.3596 C.ar    1  UNL1        0.0564
     11 N          15.5763   41.7871    7.9709 N.ar    1  UNL1       -0.1537
     12 N          16.8147   41.9305    8.4030 N.ar    1  UNL1       -0.2437
     13 C          17.5242   40.9253    9.1772 C.3     1  UNL1        0.1539
     14 C          16.5623   40.1283    9.9900 C.ar    1  UNL1        0.0021
     15 C          15.1867   40.2518    9.7644 C.ar    1  UNL1       -0.0023
     16 C          14.2818   39.5193   10.5392 C.ar    1  UNL1       -0.0003
     17 C          14.7513   38.6667   11.5434 C.ar    1  UNL1       -0.0000
     18 C          16.1255   38.5487   11.7750 C.ar    1  UNL1       -0.0003
     19 C          17.0309   39.2815   11.0009 C.ar    1  UNL1       -0.0023
     20 C           9.7753   41.0121    8.9404 C.3     1  UNL1        0.1810
     21 C           6.8916   42.9850    8.3166 C.ar    1  UNL1        0.1733
     22 C           7.5446   40.9856    7.7978 C.ar    1  UNL1        0.0571
     23 C           6.4940   41.8663    7.5969 C.ar    1  UNL1        0.0391
     24 N           8.0978   42.7918    8.8859 N.ar    1  UNL1       -0.1652
     25 N           8.4839   41.5709    8.5662 N.ar    1  UNL1       -0.2483
     26 F           6.8889   45.2305    9.0153 F       1  UNL1       -0.1643
     27 F           5.6865   44.6790    7.1919 F       1  UNL1       -0.1643
     28 F           4.9936   44.0284    9.2343 F       1  UNL1       -0.1643
     29 C           6.1031   44.2496    8.4394 C.3     1  UNL1        0.4365
     30 C           7.6673   39.6250    7.1808 C.3     1  UNL1        0.0400
     31 C           6.6033   39.4464    6.1128 C.3     1  UNL1        0.0063
     32 C           8.0301   39.7414    5.7104 C.3     1  UNL1        0.0063
@<TRIPOS>BOND
     1    29    26    1
     2    29    27    1
     3    29    28    1
     4    29    21    1
     5    20    25    1
     6    20     1    1
     7     1     5   ar
     8     2     6    1
     9     2     5   ar
    10    13    12    1
    11    13    14    1
    12    15    16   ar
    13    17    18   ar
    14    19    14   ar
    15    10     8   ar
    16    23    21   ar
    17    30    22    1
    18    30    31    1
    19    31    32    1
    20    32    30    1
    21    25    24   ar
    22    25    22   ar
    23     3     4   ar
    24     6     8    1
    25    12    11   ar
    26    12     9   ar
    27    21    24   ar
    28     1     3   ar
    29     2     4   ar
    30     8    11   ar
    31    14    15   ar
    32    16    17   ar
    33    18    19   ar
    34     9    10   ar
    35    22    23   ar
    36     6     7    1
@<TRIPOS>MOLECULE
MolPort-002-761-544 2809624 CSSS00132992731 MCULE-2379035670 PubChem-19584150 ZINC000002809624 ZINC02809624
 32 36 0 0 0
SMALL
GASTEIGER

@<TRIPOS>ATOM
      1 C           7.1084   40.2514    6.9186 C.ar    1  UNL1        0.1370
      2 C           9.2937   39.6334    6.1755 C.ar    1  UNL1        0.1869
      3 N           7.0921   39.4708    5.8162 N.ar    1  UNL1       -0.1420
      4 N           8.3096   39.1297    5.3983 N.ar    1  UNL1       -0.1256
      5 S           8.6803   40.5417    7.4514 S.2     1  UNL1       -0.0328
      6 N          10.6892   39.4105    5.9537 N.pl3   1  UNL1       -0.2754
      7 H          10.9477   38.6308    5.4110 H       1  UNL1        0.1556
      8 C          11.7355   40.2412    6.4651 C.ar    1  UNL1        0.1549
      9 C          13.3561   41.0196    7.6859 C.ar    1  UNL1        0.0984
     10 C          12.4769   39.9510    7.5957 C.ar    1  UNL1        0.0564
     11 N          12.1288   41.3975    5.9061 N.ar    1  UNL1       -0.1537
     12 N          13.1072   41.8577    6.6625 N.ar    1  UNL1       -0.2437
     13 C          13.8365   43.0845    6.3861 C.3     1  UNL1        0.1539
     14 C          15.1840   43.0360    7.0211 C.ar    1  UNL1        0.0021
     15 C          15.4879   42.0246    7.9393 C.ar    1  UNL1       -0.0023
     16 C          16.7451   41.9888    8.5506 C.ar    1  UNL1       -0.0003
     17 C          17.6977   42.9671    8.2481 C.ar    1  UNL1       -0.0000
     18 C          17.3922   43.9829    7.3367 C.ar    1  UNL1       -0.0003
     19 C          16.1347   44.0195    6.7255 C.ar    1  UNL1       -0.0023
     20 C           5.8759   40.7183    7.6123 C.3     1  UNL1        0.1810
     21 C           7.2693   41.6953   10.7270 C.ar    1  UNL1        0.1733
     22 C           5.3020   41.1305   10.0171 C.ar    1  UNL1        0.0571
     23 C           5.9579   41.5562   11.1610 C.ar    1  UNL1        0.0391
     24 N           7.3813   41.3948    9.4180 N.ar    1  UNL1       -0.1652
     25 N           6.1789   41.0496    8.9974 N.ar    1  UNL1       -0.2483
     26 F           7.9468   42.4711   12.8411 F       1  UNL1       -0.1643
     27 F           9.3423   41.1166   11.7041 F       1  UNL1       -0.1643
     28 F           9.0228   43.2368   11.0133 F       1  UNL1       -0.1643
     29 C           8.4133   42.1348   11.5839 C.3     1  UNL1        0.4365
     30 C           3.8275   40.8870    9.9013 C.3     1  UNL1        0.0400
     31 C           3.0815   41.7655   10.8895 C.3     1  UNL1        0.0063
     32 C           3.1191   42.1439    9.4266 C.3     1  UNL1        0.0063
@<TRIPOS>BOND
     1    29    26    1
     2    29    27    1
     3    29    28    1
     4    29    21    1
     5    20    25    1
     6    20     1    1
     7     1     5   ar
     8     2     6    1
     9     2     5   ar
    10    13    12    1
    11    13    14    1
    12    15    16   ar
    13    17    18   ar
    14    19    14   ar
    15    10     8   ar
    16    23    21   ar
    17    30    22    1
    18    30    31    1
    19    31    32    1
    20    32    30    1
    21    25    24   ar
    22    25    22   ar
    23     3     4   ar
    24     6     8    1
    25    12    11   ar
    26    12     9   ar
    27    21    24   ar
    28     1     3   ar
    29     2     4   ar
    30     8    11   ar
    31    14    15   ar
    32    16    17   ar
    33    18    19   ar
    34     9    10   ar
    35    22    23   ar
    36     6     7    1
