@<TRIPOS>MOLECULE
MolPort-002-847-813 386794 CHEMBL1508199 CSSS00121629189 LN01247476 MCULE-3828966775 PubChem-851895 ZINC000000386794 ZINC00386794
 22 23 0 0 0
SMALL
GASTEIGER

@<TRIPOS>ATOM
      1 C          13.5305   42.2017    6.7110 C.ar    1  UNL1        0.1678
      2 C          11.5361   41.3969    6.0730 C.ar    1  UNL1        0.0704
      3 C          10.4506   41.1051    5.0949 C.3     1  UNL1        0.0528
      4 C          11.4952   41.0275    7.4242 C.ar    1  UNL1        0.0845
      5 N          12.6690   42.0409    5.6836 N.ar    1  UNL1       -0.2281
      6 S          12.9307   41.5586    8.1387 S.2     1  UNL1       -0.0484
      7 C          15.0167   44.1500    6.0476 C.2     1  UNL1        0.4068
      8 O          14.0495   44.8278    5.6036 O.2     1  UNL1       -0.2260
      9 N          14.8021   42.8483    6.6022 N.am    1  UNL1       -0.2298
     10 H          15.5900   42.3603    6.9344 H       1  UNL1        0.1601
     11 O          16.3143   44.6601    6.0046 O.3     1  UNL1       -0.4344
     12 C          17.8927   43.9215    7.6486 C.3     1  UNL1        0.0513
     13 C          17.4518   43.8344    6.2028 C.3     1  UNL1        0.2102
     14 C          10.3669   40.3696    8.1279 C.2     1  UNL1        0.2027
     15 O           9.6618   39.5370    7.4955 O.2     1  UNL1       -0.2860
     16 C          10.0270   40.6569    9.5413 C.ar    1  UNL1        0.0396
     17 C           8.7847   41.2030    9.8997 C.ar    1  UNL1        0.0041
     18 C           8.4926   41.4915   11.2357 C.ar    1  UNL1        0.0115
     19 C           9.4444   41.2432   12.2272 C.ar    1  UNL1        0.0577
     20 C          10.6892   40.7118   11.8824 C.ar    1  UNL1        0.0115
     21 C          10.9795   40.4235   10.5458 C.ar    1  UNL1        0.0041
     22 CL          9.0797   41.6037   13.9005 Cl      1  UNL1       -0.0822
@<TRIPOS>BOND
     1    12    13    1
     2    13    11    1
     3     7    11    1
     4     7     9   am
     5     1     6   ar
     6     2     5   ar
     7     3     2    1
     8     4     6   ar
     9     4    14    1
    10    14    16    1
    11    17    18   ar
    12    19    22    1
    13    19    20   ar
    14    21    16   ar
    15     9     1    1
    16     7     8    2
    17     1     5   ar
    18     2     4   ar
    19    14    15    2
    20    16    17   ar
    21    18    19   ar
    22    20    21   ar
    23     9    10    1
@<TRIPOS>MOLECULE
MolPort-002-847-813 386794 CHEMBL1508199 CSSS00121629189 LN01247476 MCULE-3828966775 PubChem-851895 ZINC000000386794 ZINC00386794
 22 23 0 0 0
SMALL
GASTEIGER

@<TRIPOS>ATOM
      1 C          12.4570   42.3692    6.1619 C.ar    1  UNL1        0.1678
      2 C          14.5064   43.2814    6.1732 C.ar    1  UNL1        0.0704
      3 C          15.5711   44.2100    5.6996 C.3     1  UNL1        0.0528
      4 C          14.6630   42.3868    7.2404 C.ar    1  UNL1        0.0845
      5 N          13.2801   43.2710    5.5850 N.ar    1  UNL1       -0.2281
      6 S          13.2069   41.5491    7.4176 S.2     1  UNL1       -0.0484
      7 C          10.5745   40.8592    5.3738 C.2     1  UNL1        0.4068
      8 O          11.3028   39.8289    5.3830 O.2     1  UNL1       -0.2260
      9 N          11.1070   42.1328    5.7514 N.am    1  UNL1       -0.2298
     10 H          10.4975   42.9055    5.7267 H       1  UNL1        0.1601
     11 O           9.2350   40.7730    4.9943 O.3     1  UNL1       -0.4344
     12 C           8.0299   39.8779    6.8615 C.3     1  UNL1        0.0513
     13 C           8.4065   39.6964    5.4064 C.3     1  UNL1        0.2102
     14 C          15.9021   42.1483    8.0207 C.2     1  UNL1        0.2027
     15 O          16.8890   42.9119    7.8380 O.2     1  UNL1       -0.2860
     16 C          16.0326   41.0438    8.9997 C.ar    1  UNL1        0.0396
     17 C          17.2846   40.6495    9.4969 C.ar    1  UNL1        0.0041
     18 C          17.3898   39.5879   10.3999 C.ar    1  UNL1        0.0115
     19 C          16.2428   38.9043   10.8096 C.ar    1  UNL1        0.0577
     20 C          14.9924   39.2785   10.3126 C.ar    1  UNL1        0.0115
     21 C          14.8889   40.3406    9.4098 C.ar    1  UNL1        0.0041
     22 CL         16.3733   37.5751   11.9406 Cl      1  UNL1       -0.0822
@<TRIPOS>BOND
     1    12    13    1
     2    13    11    1
     3     7    11    1
     4     7     9   am
     5     1     6   ar
     6     2     5   ar
     7     3     2    1
     8     4     6   ar
     9     4    14    1
    10    14    16    1
    11    17    18   ar
    12    19    22    1
    13    19    20   ar
    14    21    16   ar
    15     9     1    1
    16     7     8    2
    17     1     5   ar
    18     2     4   ar
    19    14    15    2
    20    16    17   ar
    21    18    19   ar
    22    20    21   ar
    23     9    10    1
@<TRIPOS>MOLECULE
MolPort-002-847-813 386794 CHEMBL1508199 CSSS00121629189 LN01247476 MCULE-3828966775 PubChem-851895 ZINC000000386794 ZINC00386794
 22 23 0 0 0
SMALL
GASTEIGER

@<TRIPOS>ATOM
      1 C          12.6570   42.1999    7.0088 C.ar    1  UNL1        0.1678
      2 C          10.9999   41.1090    5.9619 C.ar    1  UNL1        0.0704
      3 C          10.3617   40.4125    4.8095 C.3     1  UNL1        0.0528
      4 C          10.3916   41.2746    7.2134 C.ar    1  UNL1        0.0845
      5 N          12.2568   41.6180    5.8578 N.ar    1  UNL1       -0.2281
      6 S          11.4789   42.1115    8.1987 S.2     1  UNL1       -0.0484
      7 C          14.4147   43.9426    6.4444 C.2     1  UNL1        0.4068
      8 O          13.7102   44.4604    5.5347 O.2     1  UNL1       -0.2260
      9 N          13.9306   42.8245    7.1951 N.am    1  UNL1       -0.2298
     10 H          14.5192   42.4569    7.8935 H       1  UNL1        0.1601
     11 O          15.6802   44.4530    6.7334 O.3     1  UNL1       -0.4344
     12 C          17.8757   43.5018    6.8546 C.3     1  UNL1        0.0513
     13 C          16.8204   44.1145    5.9584 C.3     1  UNL1        0.2102
     14 C           9.0139   40.8714    7.5880 C.2     1  UNL1        0.2027
     15 O           8.7876   39.6583    7.8481 O.2     1  UNL1       -0.2860
     16 C           7.8890   41.8332    7.6601 C.ar    1  UNL1        0.0396
     17 C           7.0201   41.8632    8.7621 C.ar    1  UNL1        0.0041
     18 C           5.9489   42.7602    8.7998 C.ar    1  UNL1        0.0115
     19 C           5.7314   43.6324    7.7309 C.ar    1  UNL1        0.0577
     20 C           6.5812   43.6040    6.6228 C.ar    1  UNL1        0.0115
     21 C           7.6522   42.7065    6.5868 C.ar    1  UNL1        0.0041
     22 CL          4.3906   44.7562    7.7773 Cl      1  UNL1       -0.0822
@<TRIPOS>BOND
     1    12    13    1
     2    13    11    1
     3     7    11    1
     4     7     9   am
     5     1     6   ar
     6     2     5   ar
     7     3     2    1
     8     4     6   ar
     9     4    14    1
    10    14    16    1
    11    17    18   ar
    12    19    22    1
    13    19    20   ar
    14    21    16   ar
    15     9     1    1
    16     7     8    2
    17     1     5   ar
    18     2     4   ar
    19    14    15    2
    20    16    17   ar
    21    18    19   ar
    22    20    21   ar
    23     9    10    1
@<TRIPOS>MOLECULE
MolPort-002-847-813 386794 CHEMBL1508199 CSSS00121629189 LN01247476 MCULE-3828966775 PubChem-851895 ZINC000000386794 ZINC00386794
 22 23 0 0 0
SMALL
GASTEIGER

@<TRIPOS>ATOM
      1 C          11.6500   40.1362   10.6679 C.ar    1  UNL1        0.1678
      2 C          13.7345   39.4524   11.1364 C.ar    1  UNL1        0.0704
      3 C          14.7762   38.7617   11.9476 C.3     1  UNL1        0.0528
      4 C          13.9887   40.1005    9.9202 C.ar    1  UNL1        0.0845
      5 N          12.4361   39.4704   11.5410 N.ar    1  UNL1       -0.2281
      6 S          12.5227   40.7295    9.3648 S.2     1  UNL1       -0.0484
      7 C           9.4914   41.4235   10.3105 C.2     1  UNL1        0.4068
      8 O          10.0612   42.3326    9.6464 O.2     1  UNL1       -0.2260
      9 N          10.2410   40.3220   10.8325 N.am    1  UNL1       -0.2298
     10 H           9.7494   39.6396   11.3443 H       1  UNL1        0.1601
     11 O           8.1178   41.4782   10.5471 O.3     1  UNL1       -0.4344
     12 C           6.2791   41.4811    9.0110 C.3     1  UNL1        0.0513
     13 C           7.2605   42.3250    9.7965 C.3     1  UNL1        0.2102
     14 C          15.3119   40.2830    9.2744 C.2     1  UNL1        0.2027
     15 O          16.2016   39.4086    9.4593 O.2     1  UNL1       -0.2860
     16 C          15.6357   41.4553    8.4280 C.ar    1  UNL1        0.0396
     17 C          16.8521   42.1426    8.5628 C.ar    1  UNL1        0.0041
     18 C          17.1284   43.2624    7.7732 C.ar    1  UNL1        0.0115
     19 C          16.1862   43.7110    6.8448 C.ar    1  UNL1        0.0577
     20 C          14.9668   43.0435    6.7098 C.ar    1  UNL1        0.0115
     21 C          14.6923   41.9236    7.5000 C.ar    1  UNL1        0.0041
     22 CL         16.5312   45.1127    5.8554 Cl      1  UNL1       -0.0822
@<TRIPOS>BOND
     1    12    13    1
     2    13    11    1
     3     7    11    1
     4     7     9   am
     5     1     6   ar
     6     2     5   ar
     7     3     2    1
     8     4     6   ar
     9     4    14    1
    10    14    16    1
    11    17    18   ar
    12    19    22    1
    13    19    20   ar
    14    21    16   ar
    15     9     1    1
    16     7     8    2
    17     1     5   ar
    18     2     4   ar
    19    14    15    2
    20    16    17   ar
    21    18    19   ar
    22    20    21   ar
    23     9    10    1
@<TRIPOS>MOLECULE
MolPort-002-847-813 386794 CHEMBL1508199 CSSS00121629189 LN01247476 MCULE-3828966775 PubChem-851895 ZINC000000386794 ZINC00386794
 22 23 0 0 0
SMALL
GASTEIGER

@<TRIPOS>ATOM
      1 C           8.4423   42.3202    7.2558 C.ar    1  UNL1        0.1678
      2 C           9.9157   41.2476    5.9478 C.ar    1  UNL1        0.0704
      3 C          10.3912   40.6307    4.6775 C.3     1  UNL1        0.0528
      4 C          10.6803   41.3187    7.1200 C.ar    1  UNL1        0.0845
      5 N           8.6800   41.8100    6.0283 N.ar    1  UNL1       -0.2281
      6 S           9.7433   42.0977    8.2899 S.2     1  UNL1       -0.0484
      7 C           7.1374   44.1152    8.4886 C.2     1  UNL1        0.4068
      8 O           8.1785   44.6388    8.9723 O.2     1  UNL1       -0.2260
      9 N           7.2252   42.9688    7.6366 N.am    1  UNL1       -0.2298
     10 H           6.3835   42.5979    7.2856 H       1  UNL1        0.1601
     11 O           5.8807   44.6471    8.7776 O.3     1  UNL1       -0.4344
     12 C           3.7306   44.9192    7.7563 C.3     1  UNL1        0.0513
     13 C           4.6821   43.9634    8.4443 C.3     1  UNL1        0.2102
     14 C          12.0305   40.7417    7.3322 C.2     1  UNL1        0.2027
     15 O          12.1281   39.5157    7.6109 O.2     1  UNL1       -0.2860
     16 C          13.2702   41.5481    7.2398 C.ar    1  UNL1        0.0396
     17 C          14.3750   41.2907    8.0665 C.ar    1  UNL1        0.0041
     18 C          15.5259   42.0793    7.9826 C.ar    1  UNL1        0.0115
     19 C          15.5807   43.1393    7.0748 C.ar    1  UNL1        0.0577
     20 C          14.4835   43.4138    6.2553 C.ar    1  UNL1        0.0115
     21 C          13.3333   42.6241    6.3403 C.ar    1  UNL1        0.0041
     22 CL         17.0215   44.1271    6.9686 Cl      1  UNL1       -0.0822
@<TRIPOS>BOND
     1    12    13    1
     2    13    11    1
     3     7    11    1
     4     7     9   am
     5     1     6   ar
     6     2     5   ar
     7     3     2    1
     8     4     6   ar
     9     4    14    1
    10    14    16    1
    11    17    18   ar
    12    19    22    1
    13    19    20   ar
    14    21    16   ar
    15     9     1    1
    16     7     8    2
    17     1     5   ar
    18     2     4   ar
    19    14    15    2
    20    16    17   ar
    21    18    19   ar
    22    20    21   ar
    23     9    10    1
@<TRIPOS>MOLECULE
MolPort-002-847-813 386794 CHEMBL1508199 CSSS00121629189 LN01247476 MCULE-3828966775 PubChem-851895 ZINC000000386794 ZINC00386794
 22 23 0 0 0
SMALL
GASTEIGER

@<TRIPOS>ATOM
      1 C          11.1926   41.4276    9.4417 C.ar    1  UNL1        0.1678
      2 C          13.3361   40.7839    9.2880 C.ar    1  UNL1        0.0704
      3 C          14.7234   40.8351    8.7467 C.3     1  UNL1        0.0528
      4 C          12.9218   39.9125   10.3044 C.ar    1  UNL1        0.0845
      5 N          12.3749   41.6246    8.8197 N.ar    1  UNL1       -0.2281
      6 S          11.2841   40.2104   10.5913 S.2     1  UNL1       -0.0484
      7 C           9.6627   43.4348    9.7159 C.2     1  UNL1        0.4068
      8 O          10.4378   44.0023   10.5339 O.2     1  UNL1       -0.2260
      9 N           9.9991   42.1623    9.1542 N.am    1  UNL1       -0.2298
     10 H           9.3602   41.7617    8.5213 H       1  UNL1        0.1601
     11 O           8.4620   44.0404    9.3453 O.3     1  UNL1       -0.4344
     12 C           6.3882   42.9964    8.7545 C.3     1  UNL1        0.0513
     13 C           7.6934   43.5723    8.2474 C.3     1  UNL1        0.2102
     14 C          13.7393   38.8586   10.9541 C.2     1  UNL1        0.2027
     15 O          14.2114   39.0803   12.1023 O.2     1  UNL1       -0.2860
     16 C          14.0330   37.5588   10.3062 C.ar    1  UNL1        0.0396
     17 C          13.1235   36.4910   10.3606 C.ar    1  UNL1        0.0041
     18 C          13.4299   35.2640    9.7656 C.ar    1  UNL1        0.0115
     19 C          14.6539   35.0901    9.1157 C.ar    1  UNL1        0.0577
     20 C          15.5729   36.1407    9.0653 C.ar    1  UNL1        0.0115
     21 C          15.2648   37.3673    9.6607 C.ar    1  UNL1        0.0041
     22 CL         15.0384   33.5542    8.3700 Cl      1  UNL1       -0.0822
@<TRIPOS>BOND
     1    12    13    1
     2    13    11    1
     3     7    11    1
     4     7     9   am
     5     1     6   ar
     6     2     5   ar
     7     3     2    1
     8     4     6   ar
     9     4    14    1
    10    14    16    1
    11    17    18   ar
    12    19    22    1
    13    19    20   ar
    14    21    16   ar
    15     9     1    1
    16     7     8    2
    17     1     5   ar
    18     2     4   ar
    19    14    15    2
    20    16    17   ar
    21    18    19   ar
    22    20    21   ar
    23     9    10    1
@<TRIPOS>MOLECULE
MolPort-002-847-813 386794 CHEMBL1508199 CSSS00121629189 LN01247476 MCULE-3828966775 PubChem-851895 ZINC000000386794 ZINC00386794
 22 23 0 0 0
SMALL
GASTEIGER

@<TRIPOS>ATOM
      1 C           8.4952   41.9666    6.8962 C.ar    1  UNL1        0.1678
      2 C          10.1227   40.9833    5.7060 C.ar    1  UNL1        0.0704
      3 C          10.7111   40.3527    4.4909 C.3     1  UNL1        0.0528
      4 C          10.8258   41.1933    6.8999 C.ar    1  UNL1        0.0845
      5 N           8.8346   41.4199    5.7090 N.ar    1  UNL1       -0.2281
      6 S           9.7668   41.9326    7.9886 S.2     1  UNL1       -0.0484
      7 C           6.3159   42.0041    8.1977 C.2     1  UNL1        0.4068
      8 O           6.6397   41.0106    8.9050 O.2     1  UNL1       -0.2260
      9 N           7.2043   42.5064    7.1946 N.am    1  UNL1       -0.2298
     10 H           6.9041   43.2832    6.6695 H       1  UNL1        0.1601
     11 O           5.0832   42.6300    8.3829 O.3     1  UNL1       -0.4344
     12 C           4.1497   44.7451    7.7542 C.3     1  UNL1        0.0513
     13 C           4.9843   43.9925    8.7689 C.3     1  UNL1        0.2102
     14 C          12.2168   40.7692    7.1940 C.2     1  UNL1        0.2027
     15 O          12.4200   39.5866    7.5819 O.2     1  UNL1       -0.2860
     16 C          13.3777   41.6803    7.0604 C.ar    1  UNL1        0.0396
     17 C          13.3921   42.7142    6.1112 C.ar    1  UNL1        0.0041
     18 C          14.5073   43.5468    5.9824 C.ar    1  UNL1        0.0115
     19 C          15.6237   43.3488    6.7980 C.ar    1  UNL1        0.0577
     20 C          15.6270   42.3156    7.7379 C.ar    1  UNL1        0.0115
     21 C          14.5108   41.4839    7.8655 C.ar    1  UNL1        0.0041
     22 CL         17.0205   44.3911    6.6381 Cl      1  UNL1       -0.0822
@<TRIPOS>BOND
     1    12    13    1
     2    13    11    1
     3     7    11    1
     4     7     9   am
     5     1     6   ar
     6     2     5   ar
     7     3     2    1
     8     4     6   ar
     9     4    14    1
    10    14    16    1
    11    17    18   ar
    12    19    22    1
    13    19    20   ar
    14    21    16   ar
    15     9     1    1
    16     7     8    2
    17     1     5   ar
    18     2     4   ar
    19    14    15    2
    20    16    17   ar
    21    18    19   ar
    22    20    21   ar
    23     9    10    1
@<TRIPOS>MOLECULE
MolPort-002-847-813 386794 CHEMBL1508199 CSSS00121629189 LN01247476 MCULE-3828966775 PubChem-851895 ZINC000000386794 ZINC00386794
 22 23 0 0 0
SMALL
GASTEIGER

@<TRIPOS>ATOM
      1 C          11.0658   38.9968    9.3293 C.ar    1  UNL1        0.1678
      2 C          12.1652   37.2591   10.2259 C.ar    1  UNL1        0.0704
      3 C          12.3379   35.8337   10.6240 C.3     1  UNL1        0.0528
      4 C          13.1368   38.2507   10.4176 C.ar    1  UNL1        0.0845
      5 N          11.0237   37.6781    9.6167 N.ar    1  UNL1       -0.2281
      6 S          12.5092   39.6986    9.8149 S.2     1  UNL1       -0.0484
      7 C           9.8914   39.9320    7.2821 C.2     1  UNL1        0.4068
      8 O          10.7609   39.4773    6.4888 O.2     1  UNL1       -0.2260
      9 N          10.0061   39.7166    8.6922 N.am    1  UNL1       -0.2298
     10 H           9.3017   40.0925    9.2681 H       1  UNL1        0.1601
     11 O           8.8016   40.6540    6.7957 O.3     1  UNL1       -0.4344
     12 C           6.6657   39.6898    6.2975 C.3     1  UNL1        0.0513
     13 C           7.4895   40.4650    7.3037 C.3     1  UNL1        0.2102
     14 C          14.4431   38.0891   11.1020 C.2     1  UNL1        0.2027
     15 O          14.5450   38.4510   12.3057 O.2     1  UNL1       -0.2860
     16 C          15.6374   37.5286   10.4272 C.ar    1  UNL1        0.0396
     17 C          15.5230   36.7347    9.2753 C.ar    1  UNL1        0.0041
     18 C          16.6596   36.1933    8.6682 C.ar    1  UNL1        0.0115
     19 C          17.9231   36.4347    9.2122 C.ar    1  UNL1        0.0577
     20 C          18.0495   37.2125   10.3654 C.ar    1  UNL1        0.0115
     21 C          16.9118   37.7535   10.9711 C.ar    1  UNL1        0.0041
     22 CL         19.3470   35.7576    8.4526 Cl      1  UNL1       -0.0822
@<TRIPOS>BOND
     1    12    13    1
     2    13    11    1
     3     7    11    1
     4     7     9   am
     5     1     6   ar
     6     2     5   ar
     7     3     2    1
     8     4     6   ar
     9     4    14    1
    10    14    16    1
    11    17    18   ar
    12    19    22    1
    13    19    20   ar
    14    21    16   ar
    15     9     1    1
    16     7     8    2
    17     1     5   ar
    18     2     4   ar
    19    14    15    2
    20    16    17   ar
    21    18    19   ar
    22    20    21   ar
    23     9    10    1
@<TRIPOS>MOLECULE
MolPort-002-847-813 386794 CHEMBL1508199 CSSS00121629189 LN01247476 MCULE-3828966775 PubChem-851895 ZINC000000386794 ZINC00386794
 22 23 0 0 0
SMALL
GASTEIGER

@<TRIPOS>ATOM
      1 C           8.8671   42.1621    8.4246 C.ar    1  UNL1        0.1678
      2 C          10.5433   41.1829    9.5487 C.ar    1  UNL1        0.0704
      3 C          11.2325   40.6743   10.7680 C.3     1  UNL1        0.0528
      4 C          11.0617   41.0741    8.2513 C.ar    1  UNL1        0.0845
      5 N           9.3247   41.7805    9.6364 N.ar    1  UNL1       -0.2281
      6 S           9.9450   41.7798    7.1985 S.2     1  UNL1       -0.0484
      7 C           7.0389   43.0848    6.9242 C.2     1  UNL1        0.4068
      8 O           7.6331   42.7359    5.8672 O.2     1  UNL1       -0.2260
      9 N           7.6154   42.8200    8.2070 N.am    1  UNL1       -0.2298
     10 H           7.1120   43.1130    9.0007 H       1  UNL1        0.1601
     11 O           5.8073   43.7363    6.8589 O.3     1  UNL1       -0.4344
     12 C           3.9622   45.0655    7.6130 C.3     1  UNL1        0.0513
     13 C           5.1572   44.2298    8.0203 C.3     1  UNL1        0.2102
     14 C          12.3852   40.5223    7.8705 C.2     1  UNL1        0.2027
     15 O          12.4944   39.2786    7.6933 O.2     1  UNL1       -0.2860
     16 C          13.5879   41.3707    7.6989 C.ar    1  UNL1        0.0396
     17 C          13.6145   42.4254    6.7730 C.ar    1  UNL1        0.0041
     18 C          14.7674   43.1979    6.6069 C.ar    1  UNL1        0.0115
     19 C          15.9092   42.9182    7.3611 C.ar    1  UNL1        0.0577
     20 C          15.8999   41.8636    8.2767 C.ar    1  UNL1        0.0115
     21 C          14.7460   41.0921    8.4418 C.ar    1  UNL1        0.0041
     22 CL         17.3532   43.8851    7.1542 Cl      1  UNL1       -0.0822
@<TRIPOS>BOND
     1    12    13    1
     2    13    11    1
     3     7    11    1
     4     7     9   am
     5     1     6   ar
     6     2     5   ar
     7     3     2    1
     8     4     6   ar
     9     4    14    1
    10    14    16    1
    11    17    18   ar
    12    19    22    1
    13    19    20   ar
    14    21    16   ar
    15     9     1    1
    16     7     8    2
    17     1     5   ar
    18     2     4   ar
    19    14    15    2
    20    16    17   ar
    21    18    19   ar
    22    20    21   ar
    23     9    10    1
@<TRIPOS>MOLECULE
MolPort-002-847-813 386794 CHEMBL1508199 CSSS00121629189 LN01247476 MCULE-3828966775 PubChem-851895 ZINC000000386794 ZINC00386794
 22 23 0 0 0
SMALL
GASTEIGER

@<TRIPOS>ATOM
      1 C           9.3513   41.0424   10.0144 C.ar    1  UNL1        0.1678
      2 C          11.4597   40.3558   10.3544 C.ar    1  UNL1        0.0704
      3 C          12.6183   39.9205   11.1841 C.3     1  UNL1        0.0528
      4 C          11.4836   40.4403    8.9558 C.ar    1  UNL1        0.0845
      5 N          10.2737   40.6843   10.9335 N.ar    1  UNL1       -0.2281
      6 S           9.9601   40.9696    8.4538 S.2     1  UNL1       -0.0484
      7 C           7.4506   41.4623   11.6442 C.2     1  UNL1        0.4068
      8 O           8.1358   41.1093   12.6432 O.2     1  UNL1       -0.2260
      9 N           8.0143   41.4430   10.3289 N.am    1  UNL1       -0.2298
     10 H           7.4378   41.7273    9.5832 H       1  UNL1        0.1601
     11 O           6.1290   41.8778   11.8065 O.3     1  UNL1       -0.4344
     12 C           3.8060   42.0038   11.2341 C.3     1  UNL1        0.0513
     13 C           5.0384   41.1265   11.2953 C.3     1  UNL1        0.2102
     14 C          12.6520   40.1971    8.0745 C.2     1  UNL1        0.2027
     15 O          12.8917   39.0175    7.6984 O.2     1  UNL1       -0.2860
     16 C          13.5560   41.2816    7.6247 C.ar    1  UNL1        0.0396
     17 C          14.8510   41.4203    8.1482 C.ar    1  UNL1        0.0041
     18 C          15.6795   42.4656    7.7304 C.ar    1  UNL1        0.0115
     19 C          15.2177   43.3882    6.7890 C.ar    1  UNL1        0.0577
     20 C          13.9267   43.2688    6.2697 C.ar    1  UNL1        0.0115
     21 C          13.0995   42.2227    6.6884 C.ar    1  UNL1        0.0041
     22 CL         16.2544   44.6972    6.2649 Cl      1  UNL1       -0.0822
@<TRIPOS>BOND
     1    12    13    1
     2    13    11    1
     3     7    11    1
     4     7     9   am
     5     1     6   ar
     6     2     5   ar
     7     3     2    1
     8     4     6   ar
     9     4    14    1
    10    14    16    1
    11    17    18   ar
    12    19    22    1
    13    19    20   ar
    14    21    16   ar
    15     9     1    1
    16     7     8    2
    17     1     5   ar
    18     2     4   ar
    19    14    15    2
    20    16    17   ar
    21    18    19   ar
    22    20    21   ar
    23     9    10    1
