@<TRIPOS>MOLECULE
Molport-020-292-488 MCULE-5409681055 PubChem-110264956
 29 32 0 0 0
SMALL
GASTEIGER

@<TRIPOS>ATOM
      1 C          12.6093   41.5090    7.4710 C.ar    1  UNL1        0.0517
      2 C          11.7667   41.7531    8.5582 C.ar    1  UNL1        0.0294
      3 C          10.3834   41.6254    8.4060 C.ar    1  UNL1        0.0611
      4 C          10.6609   41.0213    6.1253 C.ar    1  UNL1        0.0602
      5 C          12.0469   41.1387    6.2426 C.ar    1  UNL1        0.0294
      6 C          10.0566   40.6292    4.8257 C.3     1  UNL1        0.0521
      7 N           9.8638   41.2651    7.1991 N.ar    1  UNL1       -0.2538
      8 C           9.4892   41.8926    9.5706 C.3     1  UNL1        0.0602
      9 C          10.1372   41.4167   10.8726 C.3     1  UNL1        0.0094
     10 C           9.2169   41.6984   12.0589 C.3     1  UNL1        0.0219
     11 C           7.8713   41.0097   11.8511 C.3     1  UNL1        0.0934
     12 C           8.1317   41.2199    9.3702 C.3     1  UNL1        0.0992
     13 C           6.0136   42.0177   10.4846 C.2     1  UNL1        0.2252
     14 N           7.3127   41.4134   10.5637 N.am    1  UNL1       -0.2792
     15 O           5.3312   42.1842   11.5333 O.2     1  UNL1       -0.2749
     16 C           5.4614   42.4635    9.1641 C.3     1  UNL1        0.0767
     17 C           4.0743   43.0511    9.3189 C.3     1  UNL1        0.0091
     18 C           3.9919   44.1420    8.2781 C.3     1  UNL1        0.0005
     19 C           5.4014   44.6775    8.1467 C.3     1  UNL1        0.0005
     20 C           6.3297   43.5430    8.5407 C.3     1  UNL1        0.0091
     21 N          14.0255   41.6455    7.6530 N.pl3   1  UNL1       -0.2981
     22 H          14.4699   40.9301    8.1629 H       1  UNL1        0.1536
     23 C          16.7445   41.8357    8.6303 C.3     1  UNL1        0.0340
     24 C          16.1913   42.8078    7.6453 C.ar    1  UNL1        0.0099
     25 C          14.8706   42.7056    7.1771 C.ar    1  UNL1        0.1281
     26 C          15.1886   44.6317    5.8118 C.ar    1  UNL1        0.1003
     27 C          16.5045   44.7615    6.2561 C.ar    1  UNL1        0.0204
     28 C          17.0043   43.8420    7.1780 C.ar    1  UNL1        0.0001
     29 N          14.4093   43.6187    6.2762 N.ar    1  UNL1       -0.2294
@<TRIPOS>BOND
     1    23    24    1
     2    25    29   ar
     3    25    21    1
     4    26    27   ar
     5    28    24   ar
     6     2     3   ar
     7     4     7   ar
     8     5     1   ar
     9     6     4    1
    10     8     3    1
    11     8     9    1
    12     9    10    1
    13    10    11    1
    14    11    14    1
    15    12    14    1
    16    12     8    1
    17    16    13    1
    18    16    17    1
    19    17    18    1
    20    18    19    1
    21    19    20    1
    22    20    16    1
    23    21     1    1
    24    14    13   am
    25    24    25   ar
    26    26    29   ar
    27    27    28   ar
    28     1     2   ar
    29     3     7   ar
    30     4     5   ar
    31    13    15    2
    32    21    22    1
@<TRIPOS>MOLECULE
Molport-020-292-488 MCULE-5409681055 PubChem-110264956
 29 32 0 0 0
SMALL
GASTEIGER

@<TRIPOS>ATOM
      1 C          14.5824   40.8700    8.8750 C.ar    1  UNL1        0.0517
      2 C          13.3039   41.1705    8.3988 C.ar    1  UNL1        0.0294
      3 C          12.1889   40.5453    8.9633 C.ar    1  UNL1        0.0611
      4 C          13.5863   39.3358   10.4558 C.ar    1  UNL1        0.0602
      5 C          14.7215   39.9423    9.9154 C.ar    1  UNL1        0.0294
      6 C          13.7254   38.3506   11.5594 C.3     1  UNL1        0.0521
      7 N          12.3538   39.6459    9.9733 N.ar    1  UNL1       -0.2538
      8 C          10.8266   40.8677    8.4460 C.3     1  UNL1        0.0602
      9 C           9.8387   41.0554    9.5993 C.3     1  UNL1        0.0094
     10 C           8.4489   41.3894    9.0604 C.3     1  UNL1        0.0219
     11 C           7.9714   40.2823    8.1252 C.3     1  UNL1        0.0934
     12 C          10.3405   39.7735    7.4962 C.3     1  UNL1        0.0992
     13 C           8.6182   40.1683    5.6956 C.2     1  UNL1        0.2252
     14 N           8.9700   40.0628    7.0827 N.am    1  UNL1       -0.2792
     15 O           7.4286   40.4311    5.3656 O.2     1  UNL1       -0.2749
     16 C           9.6564   39.9781    4.6311 C.3     1  UNL1        0.0767
     17 C          10.8392   39.1888    5.1521 C.3     1  UNL1        0.0091
     18 C          11.3177   38.3751    3.9735 C.3     1  UNL1        0.0005
     19 C          10.0762   38.0813    3.1591 C.3     1  UNL1        0.0005
     20 C           9.0973   39.2046    3.4491 C.3     1  UNL1        0.0091
     21 N          15.7108   41.5259    8.2800 N.pl3   1  UNL1       -0.2981
     22 H          16.5977   41.1805    8.5318 H       1  UNL1        0.1536
     23 C          17.8537   43.4713    8.3670 C.3     1  UNL1        0.0340
     24 C          16.7308   43.5787    7.3930 C.ar    1  UNL1        0.0099
     25 C          15.6965   42.6285    7.3589 C.ar    1  UNL1        0.1281
     26 C          14.6533   43.8043    5.5688 C.ar    1  UNL1        0.1003
     27 C          15.6648   44.7648    5.5759 C.ar    1  UNL1        0.0204
     28 C          16.7074   44.6472    6.4948 C.ar    1  UNL1        0.0001
     29 N          14.6904   42.7691    6.4500 N.ar    1  UNL1       -0.2294
@<TRIPOS>BOND
     1    23    24    1
     2    25    29   ar
     3    25    21    1
     4    26    27   ar
     5    28    24   ar
     6     2     3   ar
     7     4     7   ar
     8     5     1   ar
     9     6     4    1
    10     8     3    1
    11     8     9    1
    12     9    10    1
    13    10    11    1
    14    11    14    1
    15    12    14    1
    16    12     8    1
    17    16    13    1
    18    16    17    1
    19    17    18    1
    20    18    19    1
    21    19    20    1
    22    20    16    1
    23    21     1    1
    24    14    13   am
    25    24    25   ar
    26    26    29   ar
    27    27    28   ar
    28     1     2   ar
    29     3     7   ar
    30     4     5   ar
    31    13    15    2
    32    21    22    1
@<TRIPOS>MOLECULE
Molport-020-292-488 MCULE-5409681055 PubChem-110264956
 29 32 0 0 0
SMALL
GASTEIGER

@<TRIPOS>ATOM
      1 C           9.8047   41.2457   10.7403 C.ar    1  UNL1        0.0517
      2 C           8.4732   41.5601   10.4578 C.ar    1  UNL1        0.0294
      3 C           7.5519   41.6778   11.5019 C.ar    1  UNL1        0.0611
      4 C           9.2453   41.1780   13.0913 C.ar    1  UNL1        0.0602
      5 C          10.1917   41.0537   12.0729 C.ar    1  UNL1        0.0294
      6 C           9.6477   40.9756   14.5072 C.3     1  UNL1        0.0521
      7 N           7.9559   41.4843   12.7887 N.ar    1  UNL1       -0.2538
      8 C           6.1300   42.0091   11.1921 C.3     1  UNL1        0.0602
      9 C           5.1854   40.9743   11.8070 C.3     1  UNL1        0.0094
     10 C           3.7329   41.3242   11.4885 C.3     1  UNL1        0.0219
     11 C           3.5324   41.3967    9.9777 C.3     1  UNL1        0.0934
     12 C           5.9170   42.0988    9.6814 C.3     1  UNL1        0.0992
     13 C           4.0676   43.4486    8.6221 C.2     1  UNL1        0.2252
     14 N           4.5014   42.3257    9.4031 N.am    1  UNL1       -0.2792
     15 O           2.8370   43.6283    8.4064 O.2     1  UNL1       -0.2749
     16 C           5.0655   44.4193    8.0660 C.3     1  UNL1        0.0767
     17 C           6.1844   44.6822    9.0521 C.3     1  UNL1        0.0091
     18 C           7.4145   44.8946    8.2023 C.3     1  UNL1        0.0005
     19 C           7.2116   44.0256    6.9798 C.3     1  UNL1        0.0005
     20 C           5.7113   43.8804    6.8009 C.3     1  UNL1        0.0091
     21 N          10.7315   41.1318    9.6514 N.pl3   1  UNL1       -0.2981
     22 H          10.3776   41.3350    8.7555 H       1  UNL1        0.1536
     23 C          12.5611   42.1072    7.6302 C.3     1  UNL1        0.0340
     24 C          13.0128   41.2222    8.7410 C.ar    1  UNL1        0.0099
     25 C          12.1165   40.7553    9.7170 C.ar    1  UNL1        0.1281
     26 C          13.8821   39.5761   10.7973 C.ar    1  UNL1        0.1003
     27 C          14.7981   40.0224    9.8446 C.ar    1  UNL1        0.0204
     28 C          14.3564   40.8500    8.8126 C.ar    1  UNL1        0.0001
     29 N          12.5766   39.9477   10.7141 N.ar    1  UNL1       -0.2294
@<TRIPOS>BOND
     1    23    24    1
     2    25    29   ar
     3    25    21    1
     4    26    27   ar
     5    28    24   ar
     6     2     3   ar
     7     4     7   ar
     8     5     1   ar
     9     6     4    1
    10     8     3    1
    11     8     9    1
    12     9    10    1
    13    10    11    1
    14    11    14    1
    15    12    14    1
    16    12     8    1
    17    16    13    1
    18    16    17    1
    19    17    18    1
    20    18    19    1
    21    19    20    1
    22    20    16    1
    23    21     1    1
    24    14    13   am
    25    24    25   ar
    26    26    29   ar
    27    27    28   ar
    28     1     2   ar
    29     3     7   ar
    30     4     5   ar
    31    13    15    2
    32    21    22    1
@<TRIPOS>MOLECULE
Molport-020-292-488 MCULE-5409681055 PubChem-110264956
 29 32 0 0 0
SMALL
GASTEIGER

@<TRIPOS>ATOM
      1 C          12.4663   42.0520    6.3600 C.ar    1  UNL1        0.0517
      2 C          12.5574   41.0788    7.3581 C.ar    1  UNL1        0.0294
      3 C          13.7283   40.9668    8.1126 C.ar    1  UNL1        0.0611
      4 C          14.7122   42.7610    6.9059 C.ar    1  UNL1        0.0602
      5 C          13.5574   42.9011    6.1344 C.ar    1  UNL1        0.0294
      6 C          15.8739   43.6576    6.6727 C.3     1  UNL1        0.0521
      7 N          14.7746   41.8052    7.8706 N.ar    1  UNL1       -0.2538
      8 C          13.8201   39.9216    9.1740 C.3     1  UNL1        0.0602
      9 C          12.6591   40.0488   10.1626 C.3     1  UNL1        0.0094
     10 C          12.7591   38.9725   11.2420 C.3     1  UNL1        0.0219
     11 C          14.0945   39.0868   11.9714 C.3     1  UNL1        0.0934
     12 C          15.1592   40.0150    9.9046 C.3     1  UNL1        0.0992
     13 C          16.2228   38.0646   11.1000 C.2     1  UNL1        0.2252
     14 N          15.1836   39.0489   10.9995 N.am    1  UNL1       -0.2792
     15 O          16.2137   37.2334   12.0499 O.2     1  UNL1       -0.2749
     16 C          17.3180   38.0079   10.0779 C.3     1  UNL1        0.0767
     17 C          18.3228   39.1214   10.2871 C.3     1  UNL1        0.0091
     18 C          19.6520   38.5323    9.8790 C.3     1  UNL1        0.0005
     19 C          19.5592   37.0604   10.2194 C.3     1  UNL1        0.0005
     20 C          18.0857   36.6999   10.1659 C.3     1  UNL1        0.0091
     21 N          11.2535   42.1478    5.6001 N.pl3   1  UNL1       -0.2981
     22 H          11.2582   42.7872    4.8515 H       1  UNL1        0.1536
     23 C          10.7671   39.7412    4.0650 C.3     1  UNL1        0.0340
     24 C           9.7860   40.2500    5.0650 C.ar    1  UNL1        0.0099
     25 C          10.0327   41.4185    5.8050 C.ar    1  UNL1        0.1281
     26 C           7.9417   41.1731    6.9197 C.ar    1  UNL1        0.1003
     27 C           7.6660   40.0094    6.2018 C.ar    1  UNL1        0.0204
     28 C           8.5964   39.5489    5.2704 C.ar    1  UNL1        0.0001
     29 N           9.1052   41.8447    6.7084 N.ar    1  UNL1       -0.2294
@<TRIPOS>BOND
     1    23    24    1
     2    25    29   ar
     3    25    21    1
     4    26    27   ar
     5    28    24   ar
     6     2     3   ar
     7     4     7   ar
     8     5     1   ar
     9     6     4    1
    10     8     3    1
    11     8     9    1
    12     9    10    1
    13    10    11    1
    14    11    14    1
    15    12    14    1
    16    12     8    1
    17    16    13    1
    18    16    17    1
    19    17    18    1
    20    18    19    1
    21    19    20    1
    22    20    16    1
    23    21     1    1
    24    14    13   am
    25    24    25   ar
    26    26    29   ar
    27    27    28   ar
    28     1     2   ar
    29     3     7   ar
    30     4     5   ar
    31    13    15    2
    32    21    22    1
@<TRIPOS>MOLECULE
Molport-020-292-488 MCULE-5409681055 PubChem-110264956
 29 32 0 0 0
SMALL
GASTEIGER

@<TRIPOS>ATOM
      1 C          13.5920   42.1805    6.6714 C.ar    1  UNL1        0.0517
      2 C          14.0046   41.3427    7.7103 C.ar    1  UNL1        0.0294
      3 C          15.2552   41.5371    8.3029 C.ar    1  UNL1        0.0611
      4 C          15.6884   43.3704    6.8555 C.ar    1  UNL1        0.0602
      5 C          14.4455   43.2050    6.2421 C.ar    1  UNL1        0.0294
      6 C          16.5996   44.4545    6.4058 C.3     1  UNL1        0.0521
      7 N          16.0655   42.5407    7.8642 N.ar    1  UNL1       -0.2538
      8 C          15.6913   40.6350    9.4090 C.3     1  UNL1        0.0602
      9 C          17.2174   40.5360    9.4587 C.3     1  UNL1        0.0094
     10 C          17.6540   39.6147   10.5963 C.3     1  UNL1        0.0219
     11 C          17.0364   38.2314   10.4143 C.3     1  UNL1        0.0934
     12 C          15.0689   39.2486    9.2476 C.3     1  UNL1        0.0992
     13 C          14.7059   37.6615   11.1747 C.2     1  UNL1        0.2252
     14 N          15.5877   38.3596   10.2837 N.am    1  UNL1       -0.2792
     15 O          15.1809   36.9083   12.0693 O.2     1  UNL1       -0.2749
     16 C          13.2204   37.8264   11.0586 C.3     1  UNL1        0.0767
     17 C          12.8277   39.2890   11.0682 C.3     1  UNL1        0.0091
     18 C          11.6255   39.3784   10.1588 C.3     1  UNL1        0.0005
     19 C          11.8347   38.3058    9.1116 C.3     1  UNL1        0.0005
     20 C          12.7017   37.2399    9.7567 C.3     1  UNL1        0.0091
     21 N          12.3035   41.9614    6.0803 N.pl3   1  UNL1       -0.2981
     22 H          12.2262   42.1591    5.1190 H       1  UNL1        0.1536
     23 C          10.9905   39.5870    5.0691 C.3     1  UNL1        0.0340
     24 C          10.4669   40.3363    6.2462 C.ar    1  UNL1        0.0099
     25 C          11.1125   41.4869    6.7291 C.ar    1  UNL1        0.1281
     26 C           9.4695   41.7107    8.4395 C.ar    1  UNL1        0.1003
     27 C           8.8044   40.5716    7.9856 C.ar    1  UNL1        0.0204
     28 C           9.3097   39.8837    6.8826 C.ar    1  UNL1        0.0001
     29 N          10.5958   42.1387    7.8090 N.ar    1  UNL1       -0.2294
@<TRIPOS>BOND
     1    23    24    1
     2    25    29   ar
     3    25    21    1
     4    26    27   ar
     5    28    24   ar
     6     2     3   ar
     7     4     7   ar
     8     5     1   ar
     9     6     4    1
    10     8     3    1
    11     8     9    1
    12     9    10    1
    13    10    11    1
    14    11    14    1
    15    12    14    1
    16    12     8    1
    17    16    13    1
    18    16    17    1
    19    17    18    1
    20    18    19    1
    21    19    20    1
    22    20    16    1
    23    21     1    1
    24    14    13   am
    25    24    25   ar
    26    26    29   ar
    27    27    28   ar
    28     1     2   ar
    29     3     7   ar
    30     4     5   ar
    31    13    15    2
    32    21    22    1
@<TRIPOS>MOLECULE
Molport-020-292-488 MCULE-5409681055 PubChem-110264956
 29 32 0 0 0
SMALL
GASTEIGER

@<TRIPOS>ATOM
      1 C          14.4733   40.7926    8.6956 C.ar    1  UNL1        0.0517
      2 C          13.2134   40.7391    8.0944 C.ar    1  UNL1        0.0294
      3 C          12.1678   40.0678    8.7338 C.ar    1  UNL1        0.0611
      4 C          13.5979   39.5054   10.5454 C.ar    1  UNL1        0.0602
      5 C          14.6640   40.1682    9.9350 C.ar    1  UNL1        0.0294
      6 C          13.7922   38.8405   11.8599 C.3     1  UNL1        0.0521
      7 N          12.3822   39.4681    9.9383 N.ar    1  UNL1       -0.2538
      8 C          10.8259   40.0107    8.0831 C.3     1  UNL1        0.0602
      9 C          10.8904   39.2197    6.7748 C.3     1  UNL1        0.0094
     10 C           9.5119   39.1630    6.1189 C.3     1  UNL1        0.0219
     11 C           8.9973   40.5762    5.8618 C.3     1  UNL1        0.0934
     12 C          10.2911   41.4201    7.8319 C.3     1  UNL1        0.0992
     13 C           7.8338   41.9508    7.6200 C.2     1  UNL1        0.2252
     14 N           9.0256   41.3376    7.1076 N.am    1  UNL1       -0.2792
     15 O           6.7503   41.8542    6.9799 O.2     1  UNL1       -0.2749
     16 C           7.8618   42.6999    8.9183 C.3     1  UNL1        0.0767
     17 C           9.2798   43.0451    9.3228 C.3     1  UNL1        0.0091
     18 C           9.1741   44.3782   10.0242 C.3     1  UNL1        0.0005
     19 C           8.0197   45.0926    9.3550 C.3     1  UNL1        0.0005
     20 C           7.1023   44.0114    8.8134 C.3     1  UNL1        0.0091
     21 N          15.5299   41.4888    8.0200 N.pl3   1  UNL1       -0.2981
     22 H          16.4337   41.1118    8.1208 H       1  UNL1        0.1536
     23 C          17.6065   43.5009    8.1727 C.3     1  UNL1        0.0340
     24 C          16.4231   43.6558    7.2800 C.ar    1  UNL1        0.0099
     25 C          15.4216   42.6727    7.2132 C.ar    1  UNL1        0.1281
     26 C          14.2315   43.9712    5.6092 C.ar    1  UNL1        0.1003
     27 C          15.2082   44.9663    5.6516 C.ar    1  UNL1        0.0204
     28 C          16.3084   44.8033    6.4931 C.ar    1  UNL1        0.0001
     29 N          14.3577   42.8591    6.3817 N.ar    1  UNL1       -0.2294
@<TRIPOS>BOND
     1    23    24    1
     2    25    29   ar
     3    25    21    1
     4    26    27   ar
     5    28    24   ar
     6     2     3   ar
     7     4     7   ar
     8     5     1   ar
     9     6     4    1
    10     8     3    1
    11     8     9    1
    12     9    10    1
    13    10    11    1
    14    11    14    1
    15    12    14    1
    16    12     8    1
    17    16    13    1
    18    16    17    1
    19    17    18    1
    20    18    19    1
    21    19    20    1
    22    20    16    1
    23    21     1    1
    24    14    13   am
    25    24    25   ar
    26    26    29   ar
    27    27    28   ar
    28     1     2   ar
    29     3     7   ar
    30     4     5   ar
    31    13    15    2
    32    21    22    1
@<TRIPOS>MOLECULE
Molport-020-292-488 MCULE-5409681055 PubChem-110264956
 29 32 0 0 0
SMALL
GASTEIGER

@<TRIPOS>ATOM
      1 C          16.7485   41.4049    9.1409 C.ar    1  UNL1        0.0517
      2 C          15.4499   41.0318    8.7859 C.ar    1  UNL1        0.0294
      3 C          14.7820   41.7242    7.7723 C.ar    1  UNL1        0.0611
      4 C          16.6623   43.1426    7.4622 C.ar    1  UNL1        0.0602
      5 C          17.3586   42.4722    8.4693 C.ar    1  UNL1        0.0294
      6 C          17.3023   44.2757    6.7453 C.3     1  UNL1        0.0521
      7 N          15.3992   42.7593    7.1368 N.ar    1  UNL1       -0.2538
      8 C          13.3930   41.3231    7.4018 C.3     1  UNL1        0.0602
      9 C          12.8855   42.1528    6.2206 C.3     1  UNL1        0.0094
     10 C          11.4655   41.7320    5.8459 C.3     1  UNL1        0.0219
     11 C          10.5388   41.8937    7.0473 C.3     1  UNL1        0.0934
     12 C          12.4554   41.4666    8.6001 C.3     1  UNL1        0.0992
     13 C          10.3172   40.1514    8.8500 C.2     1  UNL1        0.2252
     14 N          11.0881   41.1633    8.1862 N.am    1  UNL1       -0.2792
     15 O           9.1417   39.9007    8.4645 O.2     1  UNL1       -0.2749
     16 C          10.9006   39.3797    9.9952 C.3     1  UNL1        0.0767
     17 C          11.9289   38.3771    9.5148 C.3     1  UNL1        0.0091
     18 C          12.9634   38.3191   10.6133 C.3     1  UNL1        0.0005
     19 C          12.9834   39.7064   11.2183 C.3     1  UNL1        0.0005
     20 C          11.6076   40.3000   10.9755 C.3     1  UNL1        0.0091
     21 N          17.4133   40.6779   10.1835 N.pl3   1  UNL1       -0.2981
     22 H          17.4671   41.1242   11.0593 H       1  UNL1        0.1536
     23 C          16.3416   38.5220   11.7923 C.3     1  UNL1        0.0340
     24 C          17.4983   38.3205   10.8742 C.ar    1  UNL1        0.0099
     25 C          18.0097   39.3736   10.0974 C.ar    1  UNL1        0.1281
     26 C          19.6521   37.9159    9.1738 C.ar    1  UNL1        0.1003
     27 C          19.1685   36.8489    9.9310 C.ar    1  UNL1        0.0204
     28 C          18.0853   37.0570   10.7845 C.ar    1  UNL1        0.0001
     29 N          19.0693   39.1407    9.2721 N.ar    1  UNL1       -0.2294
@<TRIPOS>BOND
     1    23    24    1
     2    25    29   ar
     3    25    21    1
     4    26    27   ar
     5    28    24   ar
     6     2     3   ar
     7     4     7   ar
     8     5     1   ar
     9     6     4    1
    10     8     3    1
    11     8     9    1
    12     9    10    1
    13    10    11    1
    14    11    14    1
    15    12    14    1
    16    12     8    1
    17    16    13    1
    18    16    17    1
    19    17    18    1
    20    18    19    1
    21    19    20    1
    22    20    16    1
    23    21     1    1
    24    14    13   am
    25    24    25   ar
    26    26    29   ar
    27    27    28   ar
    28     1     2   ar
    29     3     7   ar
    30     4     5   ar
    31    13    15    2
    32    21    22    1
@<TRIPOS>MOLECULE
Molport-020-292-488 MCULE-5409681055 PubChem-110264956
 29 32 0 0 0
SMALL
GASTEIGER

@<TRIPOS>ATOM
      1 C          10.3643   40.4428   10.0114 C.ar    1  UNL1        0.0517
      2 C           9.3585   41.0072    9.2231 C.ar    1  UNL1        0.0294
      3 C           8.2938   41.6769    9.8320 C.ar    1  UNL1        0.0611
      4 C           9.2066   41.2353   11.9803 C.ar    1  UNL1        0.0602
      5 C          10.2846   40.5604   11.4050 C.ar    1  UNL1        0.0294
      6 C           9.1147   41.3641   13.4577 C.3     1  UNL1        0.0521
      7 N           8.2411   41.7749   11.1899 N.ar    1  UNL1       -0.2538
      8 C           7.2205   42.2732    8.9836 C.3     1  UNL1        0.0602
      9 C           7.8136   43.2473    7.9634 C.3     1  UNL1        0.0094
     10 C           6.7084   43.8487    7.0971 C.3     1  UNL1        0.0219
     11 C           5.6830   44.5579    7.9767 C.3     1  UNL1        0.0934
     12 C           6.1779   42.9757    9.8525 C.3     1  UNL1        0.0992
     13 C           3.7931   43.3524    9.1209 C.2     1  UNL1        0.2252
     14 N           5.1947   43.6331    8.9957 N.am    1  UNL1       -0.2792
     15 O           2.9653   43.9255    8.3596 O.2     1  UNL1       -0.2749
     16 C           3.3019   42.3739   10.1449 C.3     1  UNL1        0.0767
     17 C           3.1467   40.9893    9.5515 C.3     1  UNL1        0.0091
     18 C           3.4949   40.0404   10.6734 C.3     1  UNL1        0.0005
     19 C           4.5289   40.7672   11.5063 C.3     1  UNL1        0.0005
     20 C           4.2794   42.2503   11.3013 C.3     1  UNL1        0.0091
     21 N          11.4472   39.7617    9.3626 N.pl3   1  UNL1       -0.2981
     22 H          11.7706   40.1596    8.5222 H       1  UNL1        0.1536
     23 C          14.1248   39.9496   10.4486 C.3     1  UNL1        0.0340
     24 C          13.4141   38.6454   10.3252 C.ar    1  UNL1        0.0099
     25 C          12.1145   38.5659    9.7975 C.ar    1  UNL1        0.1281
     26 C          12.1159   36.2039   10.1075 C.ar    1  UNL1        0.1003
     27 C          13.4059   36.2479   10.6363 C.ar    1  UNL1        0.0204
     28 C          14.0547   37.4778   10.7439 C.ar    1  UNL1        0.0001
     29 N          11.5052   37.3501    9.7043 N.ar    1  UNL1       -0.2294
@<TRIPOS>BOND
     1    23    24    1
     2    25    29   ar
     3    25    21    1
     4    26    27   ar
     5    28    24   ar
     6     2     3   ar
     7     4     7   ar
     8     5     1   ar
     9     6     4    1
    10     8     3    1
    11     8     9    1
    12     9    10    1
    13    10    11    1
    14    11    14    1
    15    12    14    1
    16    12     8    1
    17    16    13    1
    18    16    17    1
    19    17    18    1
    20    18    19    1
    21    19    20    1
    22    20    16    1
    23    21     1    1
    24    14    13   am
    25    24    25   ar
    26    26    29   ar
    27    27    28   ar
    28     1     2   ar
    29     3     7   ar
    30     4     5   ar
    31    13    15    2
    32    21    22    1
@<TRIPOS>MOLECULE
Molport-020-292-488 MCULE-5409681055 PubChem-110264956
 29 32 0 0 0
SMALL
GASTEIGER

@<TRIPOS>ATOM
      1 C          15.7573   41.6963    8.3670 C.ar    1  UNL1        0.0517
      2 C          14.3780   41.4816    8.4207 C.ar    1  UNL1        0.0294
      3 C          13.5156   42.3361    7.7286 C.ar    1  UNL1        0.0611
      4 C          15.3613   43.6052    6.9373 C.ar    1  UNL1        0.0602
      5 C          16.2510   42.7706    7.6157 C.ar    1  UNL1        0.0294
      6 C          15.8770   44.7469    6.1384 C.3     1  UNL1        0.0521
      7 N          14.0235   43.3740    7.0068 N.ar    1  UNL1       -0.2538
      8 C          12.0429   42.1033    7.7946 C.3     1  UNL1        0.0602
      9 C          11.4468   42.7507    9.0464 C.3     1  UNL1        0.0094
     10 C           9.9392   42.5111    9.1027 C.3     1  UNL1        0.0219
     11 C           9.6474   41.0135    9.0875 C.3     1  UNL1        0.0934
     12 C          11.7344   40.6067    7.7662 C.3     1  UNL1        0.0992
     13 C           9.5360   39.6615    6.9676 C.2     1  UNL1        0.2252
     14 N          10.2976   40.4037    7.9310 N.am    1  UNL1       -0.2792
     15 O           8.2931   39.5109    7.1278 O.2     1  UNL1       -0.2749
     16 C          10.2037   39.0693    5.7632 C.3     1  UNL1        0.0767
     17 C           9.1979   38.3968    4.8525 C.3     1  UNL1        0.0091
     18 C           9.7260   38.6159    3.4549 C.3     1  UNL1        0.0005
     19 C          10.4442   39.9474    3.5023 C.3     1  UNL1        0.0005
     20 C          10.8988   40.1387    4.9378 C.3     1  UNL1        0.0091
     21 N          16.6217   40.8047    9.0849 N.pl3   1  UNL1       -0.2981
     22 H          17.5870   40.9090    8.9221 H       1  UNL1        0.1536
     23 C          18.6415   38.9934   10.0968 C.3     1  UNL1        0.0340
     24 C          17.2133   38.8921   10.5108 C.ar    1  UNL1        0.0099
     25 C          16.2416   39.7769   10.0142 C.ar    1  UNL1        0.1281
     26 C          14.5625   38.6796   11.2993 C.ar    1  UNL1        0.1003
     27 C          15.5023   37.7852   11.8116 C.ar    1  UNL1        0.0204
     28 C          16.8340   37.8959   11.4124 C.ar    1  UNL1        0.0001
     29 N          14.9477   39.6447   10.4221 N.ar    1  UNL1       -0.2294
@<TRIPOS>BOND
     1    23    24    1
     2    25    29   ar
     3    25    21    1
     4    26    27   ar
     5    28    24   ar
     6     2     3   ar
     7     4     7   ar
     8     5     1   ar
     9     6     4    1
    10     8     3    1
    11     8     9    1
    12     9    10    1
    13    10    11    1
    14    11    14    1
    15    12    14    1
    16    12     8    1
    17    16    13    1
    18    16    17    1
    19    17    18    1
    20    18    19    1
    21    19    20    1
    22    20    16    1
    23    21     1    1
    24    14    13   am
    25    24    25   ar
    26    26    29   ar
    27    27    28   ar
    28     1     2   ar
    29     3     7   ar
    30     4     5   ar
    31    13    15    2
    32    21    22    1
@<TRIPOS>MOLECULE
Molport-020-292-488 MCULE-5409681055 PubChem-110264956
 29 32 0 0 0
SMALL
GASTEIGER

@<TRIPOS>ATOM
      1 C          13.5043   41.0777    8.7011 C.ar    1  UNL1        0.0517
      2 C          12.2094   41.5716    8.8769 C.ar    1  UNL1        0.0294
      3 C          11.4694   41.1933   10.0003 C.ar    1  UNL1        0.0611
      4 C          13.2708   39.8497   10.7705 C.ar    1  UNL1        0.0602
      5 C          14.0380   40.2078    9.6607 C.ar    1  UNL1        0.0294
      6 C          13.8296   38.9274   11.7927 C.3     1  UNL1        0.0521
      7 N          12.0132   40.3446   10.9170 N.ar    1  UNL1       -0.2538
      8 C          10.0849   41.7212   10.1789 C.3     1  UNL1        0.0602
      9 C           9.6833   41.7024   11.6553 C.3     1  UNL1        0.0094
     10 C           8.2672   42.2486   11.8285 C.3     1  UNL1        0.0219
     11 C           7.2853   41.4262   10.9991 C.3     1  UNL1        0.0934
     12 C           9.0914   40.9154    9.3426 C.3     1  UNL1        0.0992
     13 C           6.8815   41.8382    8.5493 C.2     1  UNL1        0.2252
     14 N           7.7357   41.3875    9.6106 N.am    1  UNL1       -0.2792
     15 O           5.7181   42.2526    8.8097 O.2     1  UNL1       -0.2749
     16 C           7.3636   41.8303    7.1298 C.3     1  UNL1        0.0767
     17 C           8.8213   42.2315    7.0425 C.3     1  UNL1        0.0091
     18 C           9.3816   41.4265    5.8943 C.3     1  UNL1        0.0005
     19 C           8.5986   40.1312    5.8935 C.3     1  UNL1        0.0005
     20 C           7.2511   40.4442    6.5182 C.3     1  UNL1        0.0091
     21 N          14.2440   41.4818    7.5404 N.pl3   1  UNL1       -0.2981
     22 H          13.9456   41.1052    6.6812 H       1  UNL1        0.1536
     23 C          14.0937   43.8559    5.8895 C.3     1  UNL1        0.0340
     24 C          15.3082   43.5270    6.6884 C.ar    1  UNL1        0.0099
     25 C          15.3699   42.3727    7.4869 C.ar    1  UNL1        0.1281
     26 C          17.5819   42.9406    8.1650 C.ar    1  UNL1        0.1003
     27 C          17.5533   44.0951    7.3826 C.ar    1  UNL1        0.0204
     28 C          16.4078   44.3859    6.6420 C.ar    1  UNL1        0.0001
     29 N          16.5026   42.1141    8.1999 N.ar    1  UNL1       -0.2294
@<TRIPOS>BOND
     1    23    24    1
     2    25    29   ar
     3    25    21    1
     4    26    27   ar
     5    28    24   ar
     6     2     3   ar
     7     4     7   ar
     8     5     1   ar
     9     6     4    1
    10     8     3    1
    11     8     9    1
    12     9    10    1
    13    10    11    1
    14    11    14    1
    15    12    14    1
    16    12     8    1
    17    16    13    1
    18    16    17    1
    19    17    18    1
    20    18    19    1
    21    19    20    1
    22    20    16    1
    23    21     1    1
    24    14    13   am
    25    24    25   ar
    26    26    29   ar
    27    27    28   ar
    28     1     2   ar
    29     3     7   ar
    30     4     5   ar
    31    13    15    2
    32    21    22    1
