@<TRIPOS>MOLECULE
MolPort-004-990-244 CSSS00159792933 MCULE-3452684691 PubChem-45164423
 32 34 0 0 0
SMALL
GASTEIGER

@<TRIPOS>ATOM
      1 C          13.2021   40.7399    9.0706 C.ar    1  UNL1        0.1514
      2 C          14.5343   39.4526   10.1865 C.ar    1  UNL1        0.1453
      3 C          15.3408   40.3536    9.5476 C.ar    1  UNL1        0.0505
      4 C          16.7139   40.3644    9.7667 C.ar    1  UNL1        0.0202
      5 C          17.2459   39.3943   10.6399 C.ar    1  UNL1        0.0642
      6 C          16.3753   38.4765   11.2682 C.ar    1  UNL1        0.1147
      7 C          14.5048   41.1756    8.8136 C.ar    1  UNL1        0.0757
      8 N          13.2353   39.6657    9.9059 N.ar    1  UNL1       -0.3040
      9 N          15.0287   38.5205   11.0403 N.ar    1  UNL1       -0.2254
     10 C          14.5552   42.5571    6.6692 C.2     1  UNL1        0.2257
     11 O          13.6662   41.8787    6.0905 O.2     1  UNL1       -0.2748
     12 N          14.8628   42.3357    8.0510 N.am    1  UNL1       -0.2826
     13 H          15.3642   43.0426    8.5180 H       1  UNL1        0.1549
     14 C          15.2427   43.6456    5.9154 C.3     1  UNL1        0.0768
     15 C          14.2799   44.7938    5.6628 C.3     1  UNL1        0.0096
     16 C          16.4629   44.1274    6.6846 C.3     1  UNL1        0.0091
     17 C          17.7167   43.9663    5.8459 C.3     1  UNL1        0.0005
     18 C          11.9729   41.3529    8.5223 C.2     1  UNL1        0.3587
     19 O          11.7312   42.5752    8.7178 O.2     1  UNL1       -0.2432
     20 C          11.5139   39.5998    6.8547 C.3     1  UNL1        0.2560
     21 O          11.0751   40.5716    7.7917 O.3     1  UNL1       -0.4403
     22 N          18.6521   39.3220   10.9135 N.pl3   1  UNL1       -0.3328
     23 H          19.0090   39.9398   11.5918 H       1  UNL1        0.1468
     24 C          19.6024   38.4130   10.2752 C.3     1  UNL1        0.0692
     25 C          19.2692   36.9659   10.5889 C.3     1  UNL1        0.0212
     26 C          19.6525   38.6395    8.7751 C.3     1  UNL1        0.0212
     27 C          12.1066   38.9388   10.4770 C.3     1  UNL1        0.1371
     28 C          12.0282   37.5357    9.8954 C.3     1  UNL1        0.1378
     29 C          12.0437   36.5207   11.0126 C.3     1  UNL1        0.0341
     30 C          12.9116   35.4184   10.4857 C.3     1  UNL1        0.0346
     31 C          13.3284   35.9042    9.1175 C.3     1  UNL1        0.1422
     32 O          13.1280   37.2905    9.0596 O.3     1  UNL1       -0.3543
@<TRIPOS>BOND
     1     1    18    1
     2     1     8   ar
     3    18    21    1
     4    20    21    1
     5    27     8    1
     6    28    27    1
     7    28    29    1
     8    28    32    1
     9    29    30    1
    10    30    31    1
    11    31    32    1
    12     2     9   ar
    13     3     4   ar
    14     3     7   ar
    15     5     6   ar
    16     5    22    1
    17    24    22    1
    18    24    25    1
    19    24    26    1
    20     7    12    1
    21    14    10    1
    22    14    15    1
    23    14    16    1
    24    16    17    1
    25     8     2   ar
    26    12    10   am
    27    18    19    2
    28     2     3   ar
    29     4     5   ar
    30     6     9   ar
    31     7     1   ar
    32    10    11    2
    33    22    23    1
    34    12    13    1
@<TRIPOS>MOLECULE
MolPort-004-990-244 CSSS00159792933 MCULE-3452684691 PubChem-45164423
 32 34 0 0 0
SMALL
GASTEIGER

@<TRIPOS>ATOM
      1 C          10.9105   41.6385    9.3249 C.ar    1  UNL1        0.1514
      2 C          11.0869   39.4996    9.5911 C.ar    1  UNL1        0.1453
      3 C          12.1858   39.8735    8.8679 C.ar    1  UNL1        0.0505
      4 C          13.1747   38.9516    8.5426 C.ar    1  UNL1        0.0202
      5 C          12.9864   37.6164    8.9531 C.ar    1  UNL1        0.0642
      6 C          11.8298   37.2745    9.6882 C.ar    1  UNL1        0.1147
      7 C          12.0800   41.2388    8.6729 C.ar    1  UNL1        0.0757
      8 N          10.2984   40.5533    9.8730 N.ar    1  UNL1       -0.3040
      9 N          10.8968   38.2211   10.0053 N.ar    1  UNL1       -0.2254
     10 C          13.2897   42.2166    6.6504 C.2     1  UNL1        0.2257
     11 O          12.4676   41.7630    5.8114 O.2     1  UNL1       -0.2748
     12 N          13.0339   42.1139    8.0565 N.am    1  UNL1       -0.2826
     13 H          13.5597   42.6955    8.6520 H       1  UNL1        0.1549
     14 C          14.5079   42.9258    6.1621 C.3     1  UNL1        0.0768
     15 C          14.1524   44.3405    5.7359 C.3     1  UNL1        0.0096
     16 C          15.5750   42.9436    7.2454 C.3     1  UNL1        0.0091
     17 C          16.4053   44.2099    7.1517 C.3     1  UNL1        0.0005
     18 C          10.4129   43.0287    9.4105 C.2     1  UNL1        0.3587
     19 O          11.0981   43.9135    9.9924 O.2     1  UNL1       -0.2432
     20 C           8.2895   44.2743    9.4732 C.3     1  UNL1        0.2560
     21 O           9.1771   43.3585    8.8502 O.3     1  UNL1       -0.4403
     22 N          13.9475   36.5959    8.6495 N.pl3   1  UNL1       -0.3328
     23 H          13.5998   35.6939    8.4629 H       1  UNL1        0.1468
     24 C          15.3972   36.7753    8.5922 C.3     1  UNL1        0.0692
     25 C          15.9617   37.1015    9.9628 C.3     1  UNL1        0.0212
     26 C          16.0772   35.5498    8.0092 C.3     1  UNL1        0.0212
     27 C           9.0899   40.5228   10.6898 C.3     1  UNL1        0.1371
     28 C           9.2498   41.4165   11.9099 C.3     1  UNL1        0.1378
     29 C          10.4820   41.0089   12.6808 C.3     1  UNL1        0.0341
     30 C          10.0635   41.1226   14.1153 C.3     1  UNL1        0.0346
     31 C           8.6235   41.5729   14.0409 C.3     1  UNL1        0.1422
     32 O           8.1376   41.2927   12.7561 O.3     1  UNL1       -0.3543
@<TRIPOS>BOND
     1     1    18    1
     2     1     8   ar
     3    18    21    1
     4    20    21    1
     5    27     8    1
     6    28    27    1
     7    28    29    1
     8    28    32    1
     9    29    30    1
    10    30    31    1
    11    31    32    1
    12     2     9   ar
    13     3     4   ar
    14     3     7   ar
    15     5     6   ar
    16     5    22    1
    17    24    22    1
    18    24    25    1
    19    24    26    1
    20     7    12    1
    21    14    10    1
    22    14    15    1
    23    14    16    1
    24    16    17    1
    25     8     2   ar
    26    12    10   am
    27    18    19    2
    28     2     3   ar
    29     4     5   ar
    30     6     9   ar
    31     7     1   ar
    32    10    11    2
    33    22    23    1
    34    12    13    1
@<TRIPOS>MOLECULE
MolPort-004-990-244 CSSS00159792933 MCULE-3452684691 PubChem-45164423
 32 34 0 0 0
SMALL
GASTEIGER

@<TRIPOS>ATOM
      1 C           8.2712   41.5808    9.8668 C.ar    1  UNL1        0.1514
      2 C          10.4318   41.5880    9.9614 C.ar    1  UNL1        0.1453
      3 C          10.1194   41.2144    8.6833 C.ar    1  UNL1        0.0505
      4 C          11.1150   41.0191    7.7325 C.ar    1  UNL1        0.0202
      5 C          12.4537   41.1849    8.1416 C.ar    1  UNL1        0.0642
      6 C          12.7286   41.5602    9.4753 C.ar    1  UNL1        0.1147
      7 C           8.7384   41.1874    8.6100 C.ar    1  UNL1        0.0757
      8 N           9.3261   41.8088   10.6963 N.ar    1  UNL1       -0.3040
      9 N          11.7146   41.7646   10.3681 N.ar    1  UNL1       -0.2254
     10 C           7.7587   41.8455    6.3479 C.2     1  UNL1        0.2257
     11 O           8.5668   42.7923    6.1588 O.2     1  UNL1       -0.2748
     12 N           7.9255   40.9491    7.4533 N.am    1  UNL1       -0.2826
     13 H           7.4389   40.0941    7.4151 H       1  UNL1        0.1549
     14 C           6.6577   41.6244    5.3658 C.3     1  UNL1        0.0768
     15 C           5.8063   40.4408    5.7942 C.3     1  UNL1        0.0096
     16 C           5.8078   42.8790    5.2384 C.3     1  UNL1        0.0091
     17 C           5.7207   43.5986    6.5711 C.3     1  UNL1        0.0005
     18 C           6.8481   41.7304   10.2404 C.2     1  UNL1        0.3587
     19 O           6.0825   42.4547    9.5475 O.2     1  UNL1       -0.2432
     20 C           4.9775   40.7599   11.5148 C.3     1  UNL1        0.2560
     21 O           6.3546   41.0718   11.3686 O.3     1  UNL1       -0.4403
     22 N          13.5455   40.9901    7.2320 N.pl3   1  UNL1       -0.3328
     23 H          13.6445   40.0943    6.8359 H       1  UNL1        0.1468
     24 C          14.5244   42.0028    6.8407 C.3     1  UNL1        0.0692
     25 C          13.8523   43.3368    6.5713 C.3     1  UNL1        0.0212
     26 C          15.6085   42.1506    7.8928 C.3     1  UNL1        0.0212
     27 C           9.2964   42.2922   12.0725 C.3     1  UNL1        0.1371
     28 C           9.6095   41.1616   13.0404 C.3     1  UNL1        0.1378
     29 C           8.3632   40.7875   13.8055 C.3     1  UNL1        0.0341
     30 C           8.8568   40.5377   15.1982 C.3     1  UNL1        0.0346
     31 C          10.3414   40.8034   15.1125 C.3     1  UNL1        0.1422
     32 O          10.5897   41.5628   13.9605 O.3     1  UNL1       -0.3543
@<TRIPOS>BOND
     1     1    18    1
     2     1     8   ar
     3    18    21    1
     4    20    21    1
     5    27     8    1
     6    28    27    1
     7    28    29    1
     8    28    32    1
     9    29    30    1
    10    30    31    1
    11    31    32    1
    12     2     9   ar
    13     3     4   ar
    14     3     7   ar
    15     5     6   ar
    16     5    22    1
    17    24    22    1
    18    24    25    1
    19    24    26    1
    20     7    12    1
    21    14    10    1
    22    14    15    1
    23    14    16    1
    24    16    17    1
    25     8     2   ar
    26    12    10   am
    27    18    19    2
    28     2     3   ar
    29     4     5   ar
    30     6     9   ar
    31     7     1   ar
    32    10    11    2
    33    22    23    1
    34    12    13    1
@<TRIPOS>MOLECULE
MolPort-004-990-244 CSSS00159792933 MCULE-3452684691 PubChem-45164423
 32 34 0 0 0
SMALL
GASTEIGER

@<TRIPOS>ATOM
      1 C          10.9013   40.1496    7.6895 C.ar    1  UNL1        0.1514
      2 C          12.2345   41.5302    6.6926 C.ar    1  UNL1        0.1453
      3 C          12.8927   41.1329    7.8238 C.ar    1  UNL1        0.0505
      4 C          14.1956   41.5482    8.0754 C.ar    1  UNL1        0.0202
      5 C          14.7976   42.4182    7.1440 C.ar    1  UNL1        0.0642
      6 C          14.0748   42.8110    5.9959 C.ar    1  UNL1        0.1147
      7 C          12.0454   40.2613    8.4839 C.ar    1  UNL1        0.0757
      8 N          11.0237   40.9505    6.5956 N.ar    1  UNL1       -0.3040
      9 N          12.8043   42.3568    5.7793 N.ar    1  UNL1       -0.2254
     10 C          12.9753   38.2288    9.7144 C.2     1  UNL1        0.2257
     11 O          13.6505   37.8172    8.7346 O.2     1  UNL1       -0.2748
     12 N          12.3177   39.5010    9.6686 N.am    1  UNL1       -0.2826
     13 H          12.0271   39.8872   10.5263 H       1  UNL1        0.1549
     14 C          12.9215   37.4038   10.9562 C.3     1  UNL1        0.0768
     15 C          12.3407   36.0339   10.6476 C.3     1  UNL1        0.0096
     16 C          14.3106   37.2742   11.5613 C.3     1  UNL1        0.0091
     17 C          14.8444   38.6367   11.9616 C.3     1  UNL1        0.0005
     18 C           9.7350   39.2904    7.9878 C.2     1  UNL1        0.3587
     19 O           9.8801   38.0437    8.1122 O.2     1  UNL1       -0.2432
     20 C           8.2807   41.1368    8.7233 C.3     1  UNL1        0.2560
     21 O           8.4689   39.8634    8.1250 O.3     1  UNL1       -0.4403
     22 N          16.1328   42.9083    7.3298 N.pl3   1  UNL1       -0.3328
     23 H          16.7283   42.3787    7.9078 H       1  UNL1        0.1468
     24 C          16.6884   44.1238    6.7375 C.3     1  UNL1        0.0692
     25 C          17.7075   43.7912    5.6630 C.3     1  UNL1        0.0212
     26 C          15.5905   45.0114    6.1798 C.3     1  UNL1        0.0212
     27 C          10.0941   41.0932    5.4802 C.3     1  UNL1        0.1371
     28 C           9.7428   39.7308    4.9029 C.3     1  UNL1        0.1378
     29 C          11.0060   39.0050    4.5076 C.3     1  UNL1        0.0341
     30 C          10.6471   38.3346    3.2162 C.3     1  UNL1        0.0346
     31 C           9.2132   38.7457    2.9776 C.3     1  UNL1        0.1422
     32 O           8.9400   39.8754    3.7615 O.3     1  UNL1       -0.3543
@<TRIPOS>BOND
     1     1    18    1
     2     1     8   ar
     3    18    21    1
     4    20    21    1
     5    27     8    1
     6    28    27    1
     7    28    29    1
     8    28    32    1
     9    29    30    1
    10    30    31    1
    11    31    32    1
    12     2     9   ar
    13     3     4   ar
    14     3     7   ar
    15     5     6   ar
    16     5    22    1
    17    24    22    1
    18    24    25    1
    19    24    26    1
    20     7    12    1
    21    14    10    1
    22    14    15    1
    23    14    16    1
    24    16    17    1
    25     8     2   ar
    26    12    10   am
    27    18    19    2
    28     2     3   ar
    29     4     5   ar
    30     6     9   ar
    31     7     1   ar
    32    10    11    2
    33    22    23    1
    34    12    13    1
@<TRIPOS>MOLECULE
MolPort-004-990-244 CSSS00159792933 MCULE-3452684691 PubChem-45164423
 32 34 0 0 0
SMALL
GASTEIGER

@<TRIPOS>ATOM
      1 C          13.1431   41.3853    8.9135 C.ar    1  UNL1        0.1514
      2 C          14.0440   39.9580   10.2657 C.ar    1  UNL1        0.1453
      3 C          15.0438   40.3431    9.4157 C.ar    1  UNL1        0.0505
      4 C          16.3464   39.8903    9.5931 C.ar    1  UNL1        0.0202
      5 C          16.5905   38.9959   10.6548 C.ar    1  UNL1        0.0642
      6 C          15.5241   38.6171   11.5000 C.ar    1  UNL1        0.1147
      7 C          14.4798   41.2447    8.5311 C.ar    1  UNL1        0.0757
      8 N          12.8829   40.5734    9.9746 N.ar    1  UNL1       -0.3040
      9 N          14.2645   39.1080   11.3006 N.ar    1  UNL1       -0.2254
     10 C          16.1748   42.9739    7.7270 C.2     1  UNL1        0.2257
     11 O          16.8067   43.0104    8.8154 O.2     1  UNL1       -0.2748
     12 N          15.1416   42.0047    7.5114 N.am    1  UNL1       -0.2826
     13 H          14.8615   41.8468    6.5809 H       1  UNL1        0.1549
     14 C          16.5600   43.9119    6.6327 C.3     1  UNL1        0.0768
     15 C          17.9847   43.6328    6.1838 C.3     1  UNL1        0.0096
     16 C          15.5940   43.7822    5.4654 C.3     1  UNL1        0.0091
     17 C          14.4369   44.7505    5.6239 C.3     1  UNL1        0.0005
     18 C          12.1598   42.2816    8.2676 C.2     1  UNL1        0.3587
     19 O          11.7046   42.0057    7.1241 O.2     1  UNL1       -0.2432
     20 C          10.5306   43.4879    9.6658 C.3     1  UNL1        0.2560
     21 O          11.7407   43.4398    8.9254 O.3     1  UNL1       -0.4403
     22 N          17.9002   38.4669   10.9038 N.pl3   1  UNL1       -0.3328
     23 H          18.4117   38.8664   11.6441 H       1  UNL1        0.1468
     24 C          18.5436   37.3877   10.1566 C.3     1  UNL1        0.0692
     25 C          19.6520   37.9233    9.2687 C.3     1  UNL1        0.0212
     26 C          19.0751   36.3165   11.0917 C.3     1  UNL1        0.0212
     27 C          11.6383   40.4510   10.7259 C.3     1  UNL1        0.1371
     28 C          10.6434   39.5842    9.9699 C.3     1  UNL1        0.1378
     29 C          11.3787   38.7059    8.9866 C.3     1  UNL1        0.0341
     30 C          10.5017   38.7132    7.7714 C.3     1  UNL1        0.0346
     31 C           9.3468   39.6059    8.1599 C.3     1  UNL1        0.1422
     32 O           9.7391   40.3856    9.2570 O.3     1  UNL1       -0.3543
@<TRIPOS>BOND
     1     1    18    1
     2     1     8   ar
     3    18    21    1
     4    20    21    1
     5    27     8    1
     6    28    27    1
     7    28    29    1
     8    28    32    1
     9    29    30    1
    10    30    31    1
    11    31    32    1
    12     2     9   ar
    13     3     4   ar
    14     3     7   ar
    15     5     6   ar
    16     5    22    1
    17    24    22    1
    18    24    25    1
    19    24    26    1
    20     7    12    1
    21    14    10    1
    22    14    15    1
    23    14    16    1
    24    16    17    1
    25     8     2   ar
    26    12    10   am
    27    18    19    2
    28     2     3   ar
    29     4     5   ar
    30     6     9   ar
    31     7     1   ar
    32    10    11    2
    33    22    23    1
    34    12    13    1
@<TRIPOS>MOLECULE
MolPort-004-990-244 CSSS00159792933 MCULE-3452684691 PubChem-45164423
 32 34 0 0 0
SMALL
GASTEIGER

@<TRIPOS>ATOM
      1 C          12.0577   40.8480    8.3167 C.ar    1  UNL1        0.1514
      2 C          13.0488   39.8298    9.9470 C.ar    1  UNL1        0.1453
      3 C          14.0492   40.2797    9.1302 C.ar    1  UNL1        0.0505
      4 C          15.3849   40.1205    9.4820 C.ar    1  UNL1        0.0202
      5 C          15.6693   39.4498   10.6887 C.ar    1  UNL1        0.0642
      6 C          14.6032   38.9922   11.4945 C.ar    1  UNL1        0.1147
      7 C          13.4314   40.9196    8.0708 C.ar    1  UNL1        0.0757
      8 N          11.8343   40.1585    9.4688 N.ar    1  UNL1       -0.3040
      9 N          13.3051   39.1938   11.1183 N.ar    1  UNL1       -0.2254
     10 C          15.0249   42.6850    7.1467 C.2     1  UNL1        0.2257
     11 O          15.6482   42.8363    8.2303 O.2     1  UNL1       -0.2748
     12 N          14.0521   41.6432    7.0000 N.am    1  UNL1       -0.2826
     13 H          13.7865   41.4032    6.0829 H       1  UNL1        0.1549
     14 C          15.3593   43.5641    5.9887 C.3     1  UNL1        0.0768
     15 C          14.1610   44.4246    5.6240 C.3     1  UNL1        0.0096
     16 C          16.5632   44.4325    6.3189 C.3     1  UNL1        0.0091
     17 C          17.8196   43.8585    5.6915 C.3     1  UNL1        0.0005
     18 C          11.0049   41.4342    7.4590 C.2     1  UNL1        0.3587
     19 O          10.4385   42.5100    7.7947 O.2     1  UNL1       -0.2432
     20 C          10.5218   39.3761    6.1960 C.3     1  UNL1        0.2560
     21 O          10.6342   40.7887    6.2776 O.3     1  UNL1       -0.4403
     22 N          17.0180   39.2281   11.1237 N.pl3   1  UNL1       -0.3328
     23 H          17.4161   39.9081   11.7139 H       1  UNL1        0.1468
     24 C          17.8542   38.0827   10.7691 C.3     1  UNL1        0.0692
     25 C          17.1167   37.1343    9.8416 C.3     1  UNL1        0.0212
     26 C          19.1631   38.5334   10.1462 C.3     1  UNL1        0.0212
     27 C          10.5579   39.9018   10.1270 C.3     1  UNL1        0.1371
     28 C          10.0403   41.1659   10.7956 C.3     1  UNL1        0.1378
     29 C          10.0339   40.9824   12.2940 C.3     1  UNL1        0.0341
     30 C           8.7614   41.6417   12.7322 C.3     1  UNL1        0.0346
     31 C           8.1431   42.1339   11.4448 C.3     1  UNL1        0.1422
     32 O           8.7291   41.4385   10.3778 O.3     1  UNL1       -0.3543
@<TRIPOS>BOND
     1     1    18    1
     2     1     8   ar
     3    18    21    1
     4    20    21    1
     5    27     8    1
     6    28    27    1
     7    28    29    1
     8    28    32    1
     9    29    30    1
    10    30    31    1
    11    31    32    1
    12     2     9   ar
    13     3     4   ar
    14     3     7   ar
    15     5     6   ar
    16     5    22    1
    17    24    22    1
    18    24    25    1
    19    24    26    1
    20     7    12    1
    21    14    10    1
    22    14    15    1
    23    14    16    1
    24    16    17    1
    25     8     2   ar
    26    12    10   am
    27    18    19    2
    28     2     3   ar
    29     4     5   ar
    30     6     9   ar
    31     7     1   ar
    32    10    11    2
    33    22    23    1
    34    12    13    1
@<TRIPOS>MOLECULE
MolPort-004-990-244 CSSS00159792933 MCULE-3452684691 PubChem-45164423
 32 34 0 0 0
SMALL
GASTEIGER

@<TRIPOS>ATOM
      1 C          11.7844   40.2989    8.4557 C.ar    1  UNL1        0.1514
      2 C          12.6385   42.0798    7.5747 C.ar    1  UNL1        0.1453
      3 C          13.7016   41.3331    8.0023 C.ar    1  UNL1        0.0505
      4 C          15.0073   41.7367    7.7463 C.ar    1  UNL1        0.0202
      5 C          15.1946   42.9560    7.0642 C.ar    1  UNL1        0.0642
      6 C          14.0663   43.6992    6.6521 C.ar    1  UNL1        0.1147
      7 C          13.1719   40.1961    8.5854 C.ar    1  UNL1        0.0757
      8 N          11.4676   41.4736    7.8453 N.ar    1  UNL1       -0.3040
      9 N          12.8011   43.2492    6.9054 N.ar    1  UNL1       -0.2254
     10 C          14.3419   38.8968   10.4436 C.2     1  UNL1        0.2257
     11 O          13.8823   39.6120   11.3724 O.2     1  UNL1       -0.2748
     12 N          13.8815   39.0599    9.0965 N.am    1  UNL1       -0.2826
     13 H          14.0691   38.3272    8.4663 H       1  UNL1        0.1549
     14 C          15.3275   37.8262   10.7723 C.3     1  UNL1        0.0768
     15 C          15.7482   37.0981    9.5065 C.3     1  UNL1        0.0096
     16 C          16.5365   38.4232   11.4753 C.3     1  UNL1        0.0091
     17 C          17.2212   39.4404   10.5820 C.3     1  UNL1        0.0005
     18 C          10.8069   39.2856    8.9087 C.2     1  UNL1        0.3587
     19 O          11.0907   38.5119    9.8635 O.2     1  UNL1       -0.2432
     20 C           9.2592   38.1069    7.3987 C.3     1  UNL1        0.2560
     21 O           9.5688   39.1831    8.2710 O.3     1  UNL1       -0.4403
     22 N          16.5059   43.4570    6.7700 N.pl3   1  UNL1       -0.3328
     23 H          16.6470   43.8465    5.8769 H       1  UNL1        0.1468
     24 C          17.6517   43.4410    7.6776 C.3     1  UNL1        0.0692
     25 C          17.3030   44.0812    9.0089 C.3     1  UNL1        0.0212
     26 C          18.1689   42.0283    7.8804 C.3     1  UNL1        0.0212
     27 C          10.1458   41.9557    7.4595 C.3     1  UNL1        0.1371
     28 C           9.3818   42.4473    8.6791 C.3     1  UNL1        0.1378
     29 C           8.1529   43.2047    8.2379 C.3     1  UNL1        0.0341
     30 C           8.0801   44.3593    9.1905 C.3     1  UNL1        0.0346
     31 C           9.2816   44.1699   10.0863 C.3     1  UNL1        0.1422
     32 O          10.1825   43.3096    9.4431 O.3     1  UNL1       -0.3543
@<TRIPOS>BOND
     1     1    18    1
     2     1     8   ar
     3    18    21    1
     4    20    21    1
     5    27     8    1
     6    28    27    1
     7    28    29    1
     8    28    32    1
     9    29    30    1
    10    30    31    1
    11    31    32    1
    12     2     9   ar
    13     3     4   ar
    14     3     7   ar
    15     5     6   ar
    16     5    22    1
    17    24    22    1
    18    24    25    1
    19    24    26    1
    20     7    12    1
    21    14    10    1
    22    14    15    1
    23    14    16    1
    24    16    17    1
    25     8     2   ar
    26    12    10   am
    27    18    19    2
    28     2     3   ar
    29     4     5   ar
    30     6     9   ar
    31     7     1   ar
    32    10    11    2
    33    22    23    1
    34    12    13    1
@<TRIPOS>MOLECULE
MolPort-004-990-244 CSSS00159792933 MCULE-3452684691 PubChem-45164423
 32 34 0 0 0
SMALL
GASTEIGER

@<TRIPOS>ATOM
      1 C          11.5349   39.5313    8.2123 C.ar    1  UNL1        0.1514
      2 C          12.2418   41.2477    7.1026 C.ar    1  UNL1        0.1453
      3 C          13.2721   40.8924    7.9290 C.ar    1  UNL1        0.0505
      4 C          14.4978   41.5457    7.8641 C.ar    1  UNL1        0.0202
      5 C          14.6276   42.6060    6.9445 C.ar    1  UNL1        0.0642
      6 C          13.5323   42.9450    6.1196 C.ar    1  UNL1        0.1147
      7 C          12.8300   39.8047    8.6602 C.ar    1  UNL1        0.0757
      8 N          11.1778   40.4392    7.2631 N.ar    1  UNL1       -0.3040
      9 N          12.3543   42.2574    6.2027 N.ar    1  UNL1       -0.2254
     10 C          13.6910   39.2541   10.9980 C.2     1  UNL1        0.2257
     11 O          12.8807   40.0170   11.5869 O.2     1  UNL1       -0.2748
     12 N          13.5776   39.0103    9.5906 N.am    1  UNL1       -0.2826
     13 H          14.0552   38.2282    9.2307 H       1  UNL1        0.1549
     14 C          14.7358   38.5499   11.7969 C.3     1  UNL1        0.0768
     15 C          14.5379   37.0461   11.7042 C.3     1  UNL1        0.0096
     16 C          16.1221   38.9401   11.3086 C.3     1  UNL1        0.0091
     17 C          16.9109   37.7071   10.9099 C.3     1  UNL1        0.0005
     18 C          10.6814   38.4229    8.6923 C.2     1  UNL1        0.3587
     19 O           9.7601   37.9683    7.9607 O.2     1  UNL1       -0.2432
     20 C          11.1000   36.4944   10.1655 C.3     1  UNL1        0.2560
     21 O          10.8944   37.8842    9.9629 O.3     1  UNL1       -0.4403
     22 N          15.8505   43.3449    6.8195 N.pl3   1  UNL1       -0.3328
     23 H          16.0106   43.8054    5.9642 H       1  UNL1        0.1468
     24 C          16.8805   43.4755    7.8486 C.3     1  UNL1        0.0692
     25 C          17.2508   42.1214    8.4256 C.3     1  UNL1        0.0212
     26 C          18.1094   44.1821    7.3056 C.3     1  UNL1        0.0212
     27 C           9.9419   40.4884    6.4894 C.3     1  UNL1        0.1371
     28 C          10.2109   40.1374    5.0343 C.3     1  UNL1        0.1378
     29 C           9.0250   39.3995    4.4617 C.3     1  UNL1        0.0341
     30 C           9.6419   38.3353    3.6058 C.3     1  UNL1        0.0346
     31 C          11.1280   38.5480    3.7732 C.3     1  UNL1        0.1422
     32 O          11.3388   39.3095    4.9312 O.3     1  UNL1       -0.3543
@<TRIPOS>BOND
     1     1    18    1
     2     1     8   ar
     3    18    21    1
     4    20    21    1
     5    27     8    1
     6    28    27    1
     7    28    29    1
     8    28    32    1
     9    29    30    1
    10    30    31    1
    11    31    32    1
    12     2     9   ar
    13     3     4   ar
    14     3     7   ar
    15     5     6   ar
    16     5    22    1
    17    24    22    1
    18    24    25    1
    19    24    26    1
    20     7    12    1
    21    14    10    1
    22    14    15    1
    23    14    16    1
    24    16    17    1
    25     8     2   ar
    26    12    10   am
    27    18    19    2
    28     2     3   ar
    29     4     5   ar
    30     6     9   ar
    31     7     1   ar
    32    10    11    2
    33    22    23    1
    34    12    13    1
@<TRIPOS>MOLECULE
MolPort-004-990-244 CSSS00159792933 MCULE-3452684691 PubChem-45164423
 32 34 0 0 0
SMALL
GASTEIGER

@<TRIPOS>ATOM
      1 C          12.6786   41.0108    7.5348 C.ar    1  UNL1        0.1514
      2 C          13.1424   39.6381    9.1404 C.ar    1  UNL1        0.1453
      3 C          14.3213   40.2602    8.8343 C.ar    1  UNL1        0.0505
      4 C          15.4712   40.0176    9.5775 C.ar    1  UNL1        0.0202
      5 C          15.3862   39.0845   10.6306 C.ar    1  UNL1        0.0642
      6 C          14.1498   38.4579   10.9024 C.ar    1  UNL1        0.1147
      7 C          14.0462   41.1308    7.7952 C.ar    1  UNL1        0.0757
      8 N          12.1360   40.0744    8.3604 N.ar    1  UNL1       -0.3040
      9 N          13.0402   38.7472   10.1591 N.ar    1  UNL1       -0.2254
     10 C          16.0385   42.7243    7.8311 C.2     1  UNL1        0.2257
     11 O          16.5131   42.2693    8.9049 O.2     1  UNL1       -0.2748
     12 N          14.9325   42.0797    7.1873 N.am    1  UNL1       -0.2826
     13 H          14.7666   42.3086    6.2443 H       1  UNL1        0.1549
     14 C          16.6855   43.9095    7.1967 C.3     1  UNL1        0.0768
     15 C          18.1968   43.7520    7.2169 C.3     1  UNL1        0.0096
     16 C          16.1828   44.0824    5.7719 C.3     1  UNL1        0.0091
     17 C          15.1218   45.1651    5.7113 C.3     1  UNL1        0.0005
     18 C          11.9314   41.7844    6.5196 C.2     1  UNL1        0.3587
     19 O          12.2922   42.9557    6.2217 O.2     1  UNL1       -0.2432
     20 C          10.9455   40.3432    4.7831 C.3     1  UNL1        0.2560
     21 O          10.8191   41.2162    5.8953 O.3     1  UNL1       -0.4403
     22 N          16.5252   38.7618   11.4405 N.pl3   1  UNL1       -0.3328
     23 H          16.5234   39.0915   12.3682 H       1  UNL1        0.1468
     24 C          17.6884   37.9873   11.0116 C.3     1  UNL1        0.0692
     25 C          17.3161   37.0028    9.9181 C.3     1  UNL1        0.0212
     26 C          18.8132   38.8981   10.5540 C.3     1  UNL1        0.0212
     27 C          10.7361   39.6782    8.4694 C.3     1  UNL1        0.1371
     28 C          10.0237   40.5237    9.5137 C.3     1  UNL1        0.1378
     29 C          10.3136   41.9848    9.2689 C.3     1  UNL1        0.0341
     30 C          10.4964   42.5511   10.6444 C.3     1  UNL1        0.0346
     31 C          10.3082   41.3620   11.5567 C.3     1  UNL1        0.1422
     32 O          10.4736   40.1930   10.8007 O.3     1  UNL1       -0.3543
@<TRIPOS>BOND
     1     1    18    1
     2     1     8   ar
     3    18    21    1
     4    20    21    1
     5    27     8    1
     6    28    27    1
     7    28    29    1
     8    28    32    1
     9    29    30    1
    10    30    31    1
    11    31    32    1
    12     2     9   ar
    13     3     4   ar
    14     3     7   ar
    15     5     6   ar
    16     5    22    1
    17    24    22    1
    18    24    25    1
    19    24    26    1
    20     7    12    1
    21    14    10    1
    22    14    15    1
    23    14    16    1
    24    16    17    1
    25     8     2   ar
    26    12    10   am
    27    18    19    2
    28     2     3   ar
    29     4     5   ar
    30     6     9   ar
    31     7     1   ar
    32    10    11    2
    33    22    23    1
    34    12    13    1
@<TRIPOS>MOLECULE
MolPort-004-990-244 CSSS00159792933 MCULE-3452684691 PubChem-45164423
 32 34 0 0 0
SMALL
GASTEIGER

@<TRIPOS>ATOM
      1 C          11.8557   40.1020    9.3453 C.ar    1  UNL1        0.1514
      2 C          13.7980   40.7866    8.6851 C.ar    1  UNL1        0.1453
      3 C          12.9105   41.7433    8.2758 C.ar    1  UNL1        0.0505
      4 C          13.3510   42.9114    7.6634 C.ar    1  UNL1        0.0202
      5 C          14.7366   43.0566    7.4490 C.ar    1  UNL1        0.0642
      6 C          15.6143   42.0366    7.8784 C.ar    1  UNL1        0.1147
      7 C          11.6583   41.3122    8.6751 C.ar    1  UNL1        0.0757
      8 N          13.1783   39.7807    9.3298 N.ar    1  UNL1       -0.3040
      9 N          15.1360   40.9166    8.4982 N.ar    1  UNL1       -0.2254
     10 C           9.9152   42.9875    9.4904 C.2     1  UNL1        0.2257
     11 O          10.6847   43.5385   10.3209 O.2     1  UNL1       -0.2748
     12 N          10.4124   42.0130    8.5651 N.am    1  UNL1       -0.2826
     13 H           9.8487   41.8064    7.7849 H       1  UNL1        0.1549
     14 C           8.4857   43.4106    9.4344 C.3     1  UNL1        0.0768
     15 C           8.3887   44.8654    9.0064 C.3     1  UNL1        0.0096
     16 C           7.7106   42.5169    8.4789 C.3     1  UNL1        0.0091
     17 C           7.3060   43.2910    7.2385 C.3     1  UNL1        0.0005
     18 C          10.7917   39.2931    9.9787 C.2     1  UNL1        0.3587
     19 O          10.4882   38.1629    9.5082 O.2     1  UNL1       -0.2432
     20 C          10.6850   40.7809   11.9383 C.3     1  UNL1        0.2560
     21 O          10.1180   39.7878   11.0974 O.3     1  UNL1       -0.4403
     22 N          15.2789   44.2216    6.8119 N.pl3   1  UNL1       -0.3328
     23 H          14.6369   44.8702    6.4424 H       1  UNL1        0.1468
     24 C          16.6995   44.5321    6.6621 C.3     1  UNL1        0.0692
     25 C          17.4665   44.2060    7.9305 C.3     1  UNL1        0.0212
     26 C          17.2958   43.8031    5.4716 C.3     1  UNL1        0.0212
     27 C          13.8312   38.6394    9.9620 C.3     1  UNL1        0.1371
     28 C          13.9812   37.4959    8.9705 C.3     1  UNL1        0.1378
     29 C          13.4597   36.2192    9.5843 C.3     1  UNL1        0.0341
     30 C          14.4380   35.1771    9.1337 C.3     1  UNL1        0.0346
     31 C          15.4422   35.9503    8.3117 C.3     1  UNL1        0.1422
     32 O          15.3318   37.3086    8.6405 O.3     1  UNL1       -0.3543
@<TRIPOS>BOND
     1     1    18    1
     2     1     8   ar
     3    18    21    1
     4    20    21    1
     5    27     8    1
     6    28    27    1
     7    28    29    1
     8    28    32    1
     9    29    30    1
    10    30    31    1
    11    31    32    1
    12     2     9   ar
    13     3     4   ar
    14     3     7   ar
    15     5     6   ar
    16     5    22    1
    17    24    22    1
    18    24    25    1
    19    24    26    1
    20     7    12    1
    21    14    10    1
    22    14    15    1
    23    14    16    1
    24    16    17    1
    25     8     2   ar
    26    12    10   am
    27    18    19    2
    28     2     3   ar
    29     4     5   ar
    30     6     9   ar
    31     7     1   ar
    32    10    11    2
    33    22    23    1
    34    12    13    1
