@<TRIPOS>MOLECULE
MolPort-010-948-485 ChemDiv-T479-0240 MCULE-7737912314 PubChem-53189980 ZINC000065283002 ZINC65283002
 29 32 0 0 0
SMALL
GASTEIGER

@<TRIPOS>ATOM
      1 C          11.4993   39.1976    5.9656 C.ar    1  UNL1        0.1184
      2 C          11.8875   38.2873    5.0051 C.ar    1  UNL1        0.0912
      3 C          10.9678   38.3392    3.9800 C.ar    1  UNL1        0.1367
      4 N          10.3820   39.7816    5.4926 N.ar    1  UNL1       -0.2080
      5 N          10.0496   39.2650    4.3183 N.ar    1  UNL1       -0.1607
      6 C           9.8338   41.0499    7.5648 C.ar    1  UNL1        0.1036
      7 C           9.5969   40.7498    6.2053 C.ar    1  UNL1        0.1803
      8 C           7.9137   42.4215    6.1343 C.ar    1  UNL1        0.2004
      9 C           9.0866   42.0756    8.1516 C.ar    1  UNL1        0.1182
     10 N           8.6324   41.4383    5.5346 N.ar    1  UNL1       -0.2035
     11 N           8.1489   42.7413    7.4314 N.ar    1  UNL1       -0.2210
     12 C          13.7252   38.1143    8.4062 C.3     1  UNL1        0.0001
     13 C          12.7169   38.5124    9.4665 C.3     1  UNL1        0.0034
     14 C          11.3194   38.0161    9.0630 C.3     1  UNL1        0.0215
     15 C          10.2603   39.1165    9.0956 C.3     1  UNL1        0.0909
     16 C          12.0786   40.8292    8.6498 C.3     1  UNL1        0.0909
     17 C          12.7910   40.0207    9.7367 C.3     1  UNL1        0.0215
     18 N          10.7437   40.2925    8.3730 N.pl3   1  UNL1       -0.3039
     19 C          13.8356   37.0618    3.9143 C.2     1  UNL1        0.2496
     20 N          13.0250   37.4191    5.0424 N.am    1  UNL1       -0.2779
     21 O          13.5728   37.5196    2.7687 O.2     1  UNL1       -0.2698
     22 H          13.2715   37.0354    5.9149 H       1  UNL1        0.1553
     23 C          14.9824   36.1541    4.0948 C.ar    1  UNL1        0.0537
     24 C          14.9505   35.1566    5.0811 C.ar    1  UNL1        0.0042
     25 C          16.0388   34.2960    5.2516 C.ar    1  UNL1       -0.0041
     26 C          17.1670   34.4263    4.4373 C.ar    1  UNL1       -0.0218
     27 C          18.3240   33.5115    4.6185 C.3     1  UNL1        0.0310
     28 C          17.2071   35.4170    3.4526 C.ar    1  UNL1       -0.0041
     29 C          16.1187   36.2776    3.2821 C.ar    1  UNL1        0.0042
@<TRIPOS>BOND
     1    12    13    1
     2    13    14    1
     3    14    15    1
     4    15    18    1
     5    16    18    1
     6    16    17    1
     7    17    13    1
     8     6     7   ar
     9     7     4    1
    10     8    10   ar
    11     9    11   ar
    12     2    20    1
    13     2     3   ar
    14    19    23    1
    15    24    25   ar
    16    26    28   ar
    17    27    26    1
    18    29    23   ar
    19    18     6    1
    20     4     1   ar
    21     4     5   ar
    22    20    19   am
    23     7    10   ar
    24     8    11   ar
    25     9     6   ar
    26     1     2   ar
    27    19    21    2
    28    23    24   ar
    29    25    26   ar
    30    28    29   ar
    31     3     5   ar
    32    20    22    1
@<TRIPOS>MOLECULE
MolPort-010-948-485 ChemDiv-T479-0240 MCULE-7737912314 PubChem-53189980 ZINC000065283002 ZINC65283002
 29 32 0 0 0
SMALL
GASTEIGER

@<TRIPOS>ATOM
      1 C          10.5950   38.8991    5.3464 C.ar    1  UNL1        0.1184
      2 C          11.2462   38.5422    4.1843 C.ar    1  UNL1        0.0912
      3 C          10.3623   38.7050    3.1396 C.ar    1  UNL1        0.1367
      4 N           9.3585   39.2818    4.9758 N.ar    1  UNL1       -0.2080
      5 N           9.2061   39.1541    3.6655 N.ar    1  UNL1       -0.1607
      6 C           8.5895   40.2818    7.1233 C.ar    1  UNL1        0.1036
      7 C           8.3135   39.6702    5.8807 C.ar    1  UNL1        0.1803
      8 C           5.9872   39.9148    6.2823 C.ar    1  UNL1        0.2004
      9 C           7.5089   40.7159    7.8970 C.ar    1  UNL1        0.1182
     10 N           7.0168   39.4937    5.5043 N.ar    1  UNL1       -0.2035
     11 N           6.2361   40.5299    7.4654 N.ar    1  UNL1       -0.2210
     12 C          11.9990   40.7040   10.6823 C.3     1  UNL1        0.0001
     13 C          12.3014   40.8080    9.2000 C.3     1  UNL1        0.0034
     14 C          11.5204   41.9850    8.5945 C.3     1  UNL1        0.0215
     15 C          10.7073   41.5938    7.3618 C.3     1  UNL1        0.0909
     16 C          10.5535   39.2257    8.2602 C.3     1  UNL1        0.0909
     17 C          12.0453   39.4643    8.5056 C.3     1  UNL1        0.0215
     18 N           9.9192   40.3954    7.6468 N.pl3   1  UNL1       -0.3039
     19 C          12.9784   36.6972    3.8973 C.2     1  UNL1        0.2496
     20 N          12.5911   38.0693    4.0538 N.am    1  UNL1       -0.2779
     21 O          12.1056   35.7871    3.8650 O.2     1  UNL1       -0.2698
     22 H          13.3098   38.7418    4.0731 H       1  UNL1        0.1553
     23 C          14.4049   36.3486    3.7736 C.ar    1  UNL1        0.0537
     24 C          15.2168   37.0012    2.8336 C.ar    1  UNL1        0.0042
     25 C          16.5699   36.6699    2.7171 C.ar    1  UNL1       -0.0041
     26 C          17.1212   35.6838    3.5395 C.ar    1  UNL1       -0.0218
     27 C          18.5596   35.3316    3.4157 C.3     1  UNL1        0.0310
     28 C          16.3198   35.0288    4.4784 C.ar    1  UNL1       -0.0041
     29 C          14.9666   35.3602    4.5949 C.ar    1  UNL1        0.0042
@<TRIPOS>BOND
     1    12    13    1
     2    13    14    1
     3    14    15    1
     4    15    18    1
     5    16    18    1
     6    16    17    1
     7    17    13    1
     8     6     7   ar
     9     7     4    1
    10     8    10   ar
    11     9    11   ar
    12     2    20    1
    13     2     3   ar
    14    19    23    1
    15    24    25   ar
    16    26    28   ar
    17    27    26    1
    18    29    23   ar
    19    18     6    1
    20     4     1   ar
    21     4     5   ar
    22    20    19   am
    23     7    10   ar
    24     8    11   ar
    25     9     6   ar
    26     1     2   ar
    27    19    21    2
    28    23    24   ar
    29    25    26   ar
    30    28    29   ar
    31     3     5   ar
    32    20    22    1
@<TRIPOS>MOLECULE
MolPort-010-948-485 ChemDiv-T479-0240 MCULE-7737912314 PubChem-53189980 ZINC000065283002 ZINC65283002
 29 32 0 0 0
SMALL
GASTEIGER

@<TRIPOS>ATOM
      1 C          10.5898   41.6837    8.4424 C.ar    1  UNL1        0.1184
      2 C           9.5339   40.7968    8.4212 C.ar    1  UNL1        0.0912
      3 C           9.9057   39.7184    7.6478 C.ar    1  UNL1        0.1367
      4 N          11.5653   41.1162    7.7080 N.ar    1  UNL1       -0.2080
      5 N          11.1606   39.9533    7.2179 N.ar    1  UNL1       -0.1607
      6 C          14.0118   41.3818    8.0914 C.ar    1  UNL1        0.1036
      7 C          12.8276   41.7299    7.4052 C.ar    1  UNL1        0.1803
      8 C          14.0728   43.1858    6.0042 C.ar    1  UNL1        0.2004
      9 C          15.2123   41.9576    7.6648 C.ar    1  UNL1        0.1182
     10 N          12.8938   42.6336    6.3887 N.ar    1  UNL1       -0.2035
     11 N          15.2232   42.8402    6.6343 N.ar    1  UNL1       -0.2210
     12 C          13.5384   37.1021   10.5264 C.3     1  UNL1        0.0001
     13 C          13.7094   38.4489   11.2018 C.3     1  UNL1        0.0034
     14 C          12.5404   39.3707   10.8201 C.3     1  UNL1        0.0215
     15 C          12.9967   40.7260   10.2829 C.3     1  UNL1        0.0909
     16 C          15.1504   39.6449    9.4884 C.3     1  UNL1        0.0909
     17 C          15.0935   39.0326   10.8900 C.3     1  UNL1        0.0215
     18 N          14.0108   40.5336    9.2470 N.pl3   1  UNL1       -0.3039
     19 C           7.2971   41.9646    8.7670 C.2     1  UNL1        0.2496
     20 N           8.2628   40.9461    9.0623 N.am    1  UNL1       -0.2779
     21 O           7.5317   42.8284    7.8782 O.2     1  UNL1       -0.2698
     22 H           8.0323   40.2955    9.7644 H       1  UNL1        0.1553
     23 C           6.0230   42.0022    9.5065 C.ar    1  UNL1        0.0537
     24 C           5.9026   41.3583   10.7473 C.ar    1  UNL1        0.0042
     25 C           4.6936   41.3945   11.4482 C.ar    1  UNL1       -0.0041
     26 C           3.5962   42.0747   10.9137 C.ar    1  UNL1       -0.0218
     27 C           2.3110   42.1134   11.6588 C.3     1  UNL1        0.0310
     28 C           3.7074   42.7188    9.6786 C.ar    1  UNL1       -0.0041
     29 C           4.9165   42.6826    8.9777 C.ar    1  UNL1        0.0042
@<TRIPOS>BOND
     1    12    13    1
     2    13    14    1
     3    14    15    1
     4    15    18    1
     5    16    18    1
     6    16    17    1
     7    17    13    1
     8     6     7   ar
     9     7     4    1
    10     8    10   ar
    11     9    11   ar
    12     2    20    1
    13     2     3   ar
    14    19    23    1
    15    24    25   ar
    16    26    28   ar
    17    27    26    1
    18    29    23   ar
    19    18     6    1
    20     4     1   ar
    21     4     5   ar
    22    20    19   am
    23     7    10   ar
    24     8    11   ar
    25     9     6   ar
    26     1     2   ar
    27    19    21    2
    28    23    24   ar
    29    25    26   ar
    30    28    29   ar
    31     3     5   ar
    32    20    22    1
@<TRIPOS>MOLECULE
MolPort-010-948-485 ChemDiv-T479-0240 MCULE-7737912314 PubChem-53189980 ZINC000065283002 ZINC65283002
 29 32 0 0 0
SMALL
GASTEIGER

@<TRIPOS>ATOM
      1 C          16.0210   33.4333    4.5890 C.ar    1  UNL1        0.1184
      2 C          16.1979   33.1671    5.9305 C.ar    1  UNL1        0.0912
      3 C          15.6681   31.9207    6.1856 C.ar    1  UNL1        0.1367
      4 N          15.4155   32.3474    4.0723 N.ar    1  UNL1       -0.2080
      5 N          15.1872   31.4486    5.0192 N.ar    1  UNL1       -0.1607
      6 C          15.7812   32.6372    1.6258 C.ar    1  UNL1        0.1036
      7 C          14.9783   32.2211    2.7105 C.ar    1  UNL1        0.1803
      8 C          13.3480   31.4120    1.1872 C.ar    1  UNL1        0.2004
      9 C          15.3181   32.3866    0.3307 C.ar    1  UNL1        0.1182
     10 N          13.7774   31.6316    2.4561 N.ar    1  UNL1       -0.2035
     11 N          14.1204   31.7799    0.1345 N.ar    1  UNL1       -0.2210
     12 C          19.3048   35.8773    0.3788 C.3     1  UNL1        0.0001
     13 C          19.3903   34.9480    1.5740 C.3     1  UNL1        0.0034
     14 C          19.3384   33.4877    1.0980 C.3     1  UNL1        0.0215
     15 C          18.2763   32.6597    1.8192 C.3     1  UNL1        0.0909
     16 C          16.9375   34.7803    2.2047 C.3     1  UNL1        0.0909
     17 C          18.3165   35.3068    2.6093 C.3     1  UNL1        0.0215
     18 N          16.9990   33.3716    1.8069 N.pl3   1  UNL1       -0.3039
     19 C          16.3851   35.3513    7.2272 C.2     1  UNL1        0.2496
     20 N          16.8037   34.0164    6.9108 N.am    1  UNL1       -0.2779
     21 O          15.4080   35.8738    6.6244 O.2     1  UNL1       -0.2698
     22 H          17.5714   33.6541    7.4093 H       1  UNL1        0.1553
     23 C          17.1011   36.1171    8.2627 C.ar    1  UNL1        0.0537
     24 C          16.3890   36.8205    9.2460 C.ar    1  UNL1        0.0042
     25 C          17.0691   37.5466   10.2280 C.ar    1  UNL1       -0.0041
     26 C          18.4663   37.5749   10.2341 C.ar    1  UNL1       -0.0218
     27 C          19.1894   38.3468   11.2780 C.3     1  UNL1        0.0310
     28 C          19.1834   36.8772    9.2586 C.ar    1  UNL1       -0.0041
     29 C          18.5032   36.1510    8.2766 C.ar    1  UNL1        0.0042
@<TRIPOS>BOND
     1    12    13    1
     2    13    14    1
     3    14    15    1
     4    15    18    1
     5    16    18    1
     6    16    17    1
     7    17    13    1
     8     6     7   ar
     9     7     4    1
    10     8    10   ar
    11     9    11   ar
    12     2    20    1
    13     2     3   ar
    14    19    23    1
    15    24    25   ar
    16    26    28   ar
    17    27    26    1
    18    29    23   ar
    19    18     6    1
    20     4     1   ar
    21     4     5   ar
    22    20    19   am
    23     7    10   ar
    24     8    11   ar
    25     9     6   ar
    26     1     2   ar
    27    19    21    2
    28    23    24   ar
    29    25    26   ar
    30    28    29   ar
    31     3     5   ar
    32    20    22    1
@<TRIPOS>MOLECULE
MolPort-010-948-485 ChemDiv-T479-0240 MCULE-7737912314 PubChem-53189980 ZINC000065283002 ZINC65283002
 29 32 0 0 0
SMALL
GASTEIGER

@<TRIPOS>ATOM
      1 C          12.3855   40.8303    8.8085 C.ar    1  UNL1        0.1184
      2 C          11.6063   41.4731    7.8696 C.ar    1  UNL1        0.0912
      3 C          12.4109   41.7796    6.7936 C.ar    1  UNL1        0.1367
      4 N          13.6185   40.7488    8.2738 N.ar    1  UNL1       -0.2080
      5 N          13.6463   41.3259    7.0810 N.ar    1  UNL1       -0.1607
      6 C          15.9685   40.9459    9.0750 C.ar    1  UNL1        0.1036
      7 C          14.7697   40.2112    8.9428 C.ar    1  UNL1        0.1803
      8 C          15.7111   38.4524   10.2286 C.ar    1  UNL1        0.2004
      9 C          17.0048   40.3835    9.8263 C.ar    1  UNL1        0.1182
     10 N          14.6833   38.9783    9.5145 N.ar    1  UNL1       -0.2035
     11 N          16.8587   39.1575   10.3890 N.ar    1  UNL1       -0.2210
     12 C          17.6555   43.8782    5.4660 C.3     1  UNL1        0.0001
     13 C          17.0376   44.3866    6.7541 C.3     1  UNL1        0.0034
     14 C          17.8724   43.9073    7.9521 C.3     1  UNL1        0.0215
     15 C          17.0370   43.2083    9.0233 C.3     1  UNL1        0.0909
     16 C          15.3731   42.5308    7.2315 C.3     1  UNL1        0.0909
     17 C          15.5559   43.9959    6.8281 C.3     1  UNL1        0.0215
     18 N          16.1840   42.1944    8.4045 N.pl3   1  UNL1       -0.3039
     19 C           9.6373   42.7054    8.9144 C.2     1  UNL1        0.2496
     20 N          10.2147   41.7934    7.9698 N.am    1  UNL1       -0.2779
     21 O          10.3666   43.3046    9.7512 O.2     1  UNL1       -0.2698
     22 H           9.6030   41.3510    7.3379 H       1  UNL1        0.1553
     23 C           8.1831   42.9436    8.9074 C.ar    1  UNL1        0.0537
     24 C           7.2942   41.9230    9.2775 C.ar    1  UNL1        0.0042
     25 C           5.9149   42.1499    9.2705 C.ar    1  UNL1       -0.0041
     26 C           5.4140   43.3988    8.8935 C.ar    1  UNL1       -0.0218
     27 C           3.9477   43.6402    8.8862 C.3     1  UNL1        0.0310
     28 C           6.2922   44.4209    8.5235 C.ar    1  UNL1       -0.0041
     29 C           7.6716   44.1940    8.5305 C.ar    1  UNL1        0.0042
@<TRIPOS>BOND
     1    12    13    1
     2    13    14    1
     3    14    15    1
     4    15    18    1
     5    16    18    1
     6    16    17    1
     7    17    13    1
     8     6     7   ar
     9     7     4    1
    10     8    10   ar
    11     9    11   ar
    12     2    20    1
    13     2     3   ar
    14    19    23    1
    15    24    25   ar
    16    26    28   ar
    17    27    26    1
    18    29    23   ar
    19    18     6    1
    20     4     1   ar
    21     4     5   ar
    22    20    19   am
    23     7    10   ar
    24     8    11   ar
    25     9     6   ar
    26     1     2   ar
    27    19    21    2
    28    23    24   ar
    29    25    26   ar
    30    28    29   ar
    31     3     5   ar
    32    20    22    1
@<TRIPOS>MOLECULE
MolPort-010-948-485 ChemDiv-T479-0240 MCULE-7737912314 PubChem-53189980 ZINC000065283002 ZINC65283002
 29 32 0 0 0
SMALL
GASTEIGER

@<TRIPOS>ATOM
      1 C          10.0545   42.1172    8.6713 C.ar    1  UNL1        0.1184
      2 C           9.5196   41.5786    9.8227 C.ar    1  UNL1        0.0912
      3 C          10.5553   41.0429   10.5573 C.ar    1  UNL1        0.1367
      4 N          11.3831   41.9133    8.7493 N.ar    1  UNL1       -0.2080
      5 N          11.6881   41.2600    9.8613 N.ar    1  UNL1       -0.1607
      6 C          12.2271   41.7420    6.4123 C.ar    1  UNL1        0.1036
      7 C          12.3279   42.2560    7.7238 C.ar    1  UNL1        0.1803
      8 C          14.1902   43.5695    7.0609 C.ar    1  UNL1        0.2004
      9 C          13.1323   42.2057    5.4530 C.ar    1  UNL1        0.1182
     10 N          13.3175   43.1464    8.0106 N.ar    1  UNL1       -0.2035
     11 N          14.0888   43.1072    5.7897 N.ar    1  UNL1       -0.2210
     12 C           7.7615   39.6367    6.1031 C.3     1  UNL1        0.0001
     13 C           9.0572   38.9366    5.7419 C.3     1  UNL1        0.0034
     14 C           9.9705   38.8705    6.9762 C.3     1  UNL1        0.0215
     15 C          11.3759   39.4076    6.7112 C.3     1  UNL1        0.0909
     16 C          10.4228   40.9012    4.8949 C.3     1  UNL1        0.0909
     17 C           9.7037   39.6030    4.5207 C.3     1  UNL1        0.0215
     18 N          11.2933   40.7136    6.0583 N.pl3   1  UNL1       -0.3039
     19 C           7.1099   42.3890    9.6694 C.2     1  UNL1        0.2496
     20 N           8.1412   41.5502   10.2080 N.am    1  UNL1       -0.2779
     21 O           7.3799   43.2415    8.7797 O.2     1  UNL1       -0.2698
     22 H           7.8793   40.9010   10.9002 H       1  UNL1        0.1553
     23 C           5.7264   42.2541   10.1585 C.ar    1  UNL1        0.0537
     24 C           4.6738   42.9103    9.5027 C.ar    1  UNL1        0.0042
     25 C           3.3617   42.7816    9.9674 C.ar    1  UNL1       -0.0041
     26 C           3.0923   41.9960   11.0913 C.ar    1  UNL1       -0.0218
     27 C           1.6975   41.8592   11.5853 C.3     1  UNL1        0.0310
     28 C           4.1346   41.3389   11.7505 C.ar    1  UNL1       -0.0041
     29 C           5.4468   41.4676   11.2856 C.ar    1  UNL1        0.0042
@<TRIPOS>BOND
     1    12    13    1
     2    13    14    1
     3    14    15    1
     4    15    18    1
     5    16    18    1
     6    16    17    1
     7    17    13    1
     8     6     7   ar
     9     7     4    1
    10     8    10   ar
    11     9    11   ar
    12     2    20    1
    13     2     3   ar
    14    19    23    1
    15    24    25   ar
    16    26    28   ar
    17    27    26    1
    18    29    23   ar
    19    18     6    1
    20     4     1   ar
    21     4     5   ar
    22    20    19   am
    23     7    10   ar
    24     8    11   ar
    25     9     6   ar
    26     1     2   ar
    27    19    21    2
    28    23    24   ar
    29    25    26   ar
    30    28    29   ar
    31     3     5   ar
    32    20    22    1
@<TRIPOS>MOLECULE
MolPort-010-948-485 ChemDiv-T479-0240 MCULE-7737912314 PubChem-53189980 ZINC000065283002 ZINC65283002
 29 32 0 0 0
SMALL
GASTEIGER

@<TRIPOS>ATOM
      1 C          10.5354   41.3974    6.9231 C.ar    1  UNL1        0.1184
      2 C          11.6580   41.3317    6.1248 C.ar    1  UNL1        0.0912
      3 C          11.2823   40.7909    4.9141 C.ar    1  UNL1        0.1367
      4 N           9.5214   40.9199    6.1769 N.ar    1  UNL1       -0.2080
      5 N           9.9603   40.5416    4.9850 N.ar    1  UNL1       -0.1607
      6 C           7.7900   41.0576    7.9619 C.ar    1  UNL1        0.1036
      7 C           8.1741   40.7419    6.6401 C.ar    1  UNL1        0.1803
      8 C           5.9229   40.1981    6.1208 C.ar    1  UNL1        0.2004
      9 C           6.4376   40.9461    8.2981 C.ar    1  UNL1        0.1182
     10 N           7.2276   40.3083    5.7623 N.ar    1  UNL1       -0.2035
     11 N           5.5332   40.5249    7.3784 N.ar    1  UNL1       -0.2210
     12 C           9.5542   41.2873   12.5776 C.3     1  UNL1        0.0001
     13 C          10.1827   41.9937   11.3921 C.3     1  UNL1        0.0034
     14 C           9.1774   42.9885   10.7908 C.3     1  UNL1        0.0215
     15 C           8.9874   42.8121    9.2853 C.3     1  UNL1        0.0909
     16 C           9.6142   40.3656    9.5299 C.3     1  UNL1        0.0909
     17 C          10.7282   40.9713   10.3869 C.3     1  UNL1        0.0215
     18 N           8.7404   41.4040    8.9776 N.pl3   1  UNL1       -0.3039
     19 C          13.5911   42.9900    6.1386 C.2     1  UNL1        0.2496
     20 N          12.9899   41.7297    6.4666 N.am    1  UNL1       -0.2779
     21 O          12.9409   43.8597    5.4968 O.2     1  UNL1       -0.2698
     22 H          13.5389   41.0848    6.9685 H       1  UNL1        0.1553
     23 C          14.9769   43.2703    6.5539 C.ar    1  UNL1        0.0537
     24 C          15.7143   44.2867    5.9280 C.ar    1  UNL1        0.0042
     25 C          17.0288   44.5520    6.3227 C.ar    1  UNL1       -0.0041
     26 C          17.6158   43.8029    7.3460 C.ar    1  UNL1       -0.0218
     27 C          19.0132   44.0848    7.7656 C.3     1  UNL1        0.0310
     28 C          16.8886   42.7888    7.9748 C.ar    1  UNL1       -0.0041
     29 C          15.5740   42.5236    7.5801 C.ar    1  UNL1        0.0042
@<TRIPOS>BOND
     1    12    13    1
     2    13    14    1
     3    14    15    1
     4    15    18    1
     5    16    18    1
     6    16    17    1
     7    17    13    1
     8     6     7   ar
     9     7     4    1
    10     8    10   ar
    11     9    11   ar
    12     2    20    1
    13     2     3   ar
    14    19    23    1
    15    24    25   ar
    16    26    28   ar
    17    27    26    1
    18    29    23   ar
    19    18     6    1
    20     4     1   ar
    21     4     5   ar
    22    20    19   am
    23     7    10   ar
    24     8    11   ar
    25     9     6   ar
    26     1     2   ar
    27    19    21    2
    28    23    24   ar
    29    25    26   ar
    30    28    29   ar
    31     3     5   ar
    32    20    22    1
@<TRIPOS>MOLECULE
MolPort-010-948-485 ChemDiv-T479-0240 MCULE-7737912314 PubChem-53189980 ZINC000065283002 ZINC65283002
 29 32 0 0 0
SMALL
GASTEIGER

@<TRIPOS>ATOM
      1 C           7.6186   40.3607    6.4001 C.ar    1  UNL1        0.1184
      2 C           7.1033   41.5061    6.9696 C.ar    1  UNL1        0.0912
      3 C           7.8099   42.5788    6.4703 C.ar    1  UNL1        0.1367
      4 N           8.5959   40.7677    5.5681 N.ar    1  UNL1       -0.2080
      5 N           8.7273   42.0856    5.6159 N.ar    1  UNL1       -0.1607
      6 C          10.7542   39.5663    5.2503 C.ar    1  UNL1        0.1036
      7 C           9.4509   39.8932    4.8159 C.ar    1  UNL1        0.1803
      8 C           9.7021   38.4223    2.9703 C.ar    1  UNL1        0.2004
      9 C          11.4798   38.6306    4.5068 C.ar    1  UNL1        0.1182
     10 N           8.9695   39.3190    3.6788 N.ar    1  UNL1       -0.2035
     11 N          10.9446   38.0760    3.3901 N.ar    1  UNL1       -0.2210
     12 C          14.5675   41.2678    7.9023 C.3     1  UNL1        0.0001
     13 C          13.1340   41.2421    8.3961 C.3     1  UNL1        0.0034
     14 C          12.6247   39.7925    8.4293 C.3     1  UNL1        0.0215
     15 C          11.2995   39.6060    7.6925 C.3     1  UNL1        0.0909
     16 C          11.8871   41.5807    6.2115 C.3     1  UNL1        0.0909
     17 C          12.2635   42.1919    7.5632 C.3     1  UNL1        0.0215
     18 N          11.3793   40.2150    6.3654 N.pl3   1  UNL1       -0.3039
     19 C           6.1925   41.5593    9.3475 C.2     1  UNL1        0.2496
     20 N           6.0386   41.5979    7.9220 N.am    1  UNL1       -0.2779
     21 O           7.3371   41.4355    9.8630 O.2     1  UNL1       -0.2698
     22 H           5.1247   41.6957    7.5692 H       1  UNL1        0.1553
     23 C           5.0061   41.6646   10.2152 C.ar    1  UNL1        0.0537
     24 C           4.0565   42.6751   10.0007 C.ar    1  UNL1        0.0042
     25 C           2.9313   42.7742   10.8242 C.ar    1  UNL1       -0.0041
     26 C           2.7471   41.8638   11.8683 C.ar    1  UNL1       -0.0218
     27 C           1.5510   41.9691   12.7438 C.3     1  UNL1        0.0310
     28 C           3.6879   40.8543   12.0890 C.ar    1  UNL1       -0.0041
     29 C           4.8131   40.7552   11.2653 C.ar    1  UNL1        0.0042
@<TRIPOS>BOND
     1    12    13    1
     2    13    14    1
     3    14    15    1
     4    15    18    1
     5    16    18    1
     6    16    17    1
     7    17    13    1
     8     6     7   ar
     9     7     4    1
    10     8    10   ar
    11     9    11   ar
    12     2    20    1
    13     2     3   ar
    14    19    23    1
    15    24    25   ar
    16    26    28   ar
    17    27    26    1
    18    29    23   ar
    19    18     6    1
    20     4     1   ar
    21     4     5   ar
    22    20    19   am
    23     7    10   ar
    24     8    11   ar
    25     9     6   ar
    26     1     2   ar
    27    19    21    2
    28    23    24   ar
    29    25    26   ar
    30    28    29   ar
    31     3     5   ar
    32    20    22    1
@<TRIPOS>MOLECULE
MolPort-010-948-485 ChemDiv-T479-0240 MCULE-7737912314 PubChem-53189980 ZINC000065283002 ZINC65283002
 29 32 0 0 0
SMALL
GASTEIGER

@<TRIPOS>ATOM
      1 C           4.6331   42.8201   10.2779 C.ar    1  UNL1        0.1184
      2 C           4.1834   42.0057   11.2959 C.ar    1  UNL1        0.0912
      3 C           4.8102   40.7852   11.1664 C.ar    1  UNL1        0.1367
      4 N           5.5225   42.0868    9.5820 N.ar    1  UNL1       -0.2080
      5 N           5.6220   40.8687   10.0946 N.ar    1  UNL1       -0.1607
      6 C           7.5980   42.5494    8.2854 C.ar    1  UNL1        0.1036
      7 C           6.1898   42.5221    8.3875 C.ar    1  UNL1        0.1803
      8 C           6.0169   43.2072    6.1217 C.ar    1  UNL1        0.2004
      9 C           8.1614   42.8933    7.0530 C.ar    1  UNL1        0.1182
     10 N           5.4416   42.8656    7.3028 N.ar    1  UNL1       -0.2035
     11 N           7.3679   43.2105    5.9991 N.ar    1  UNL1       -0.2210
     12 C           8.7573   40.8381   12.7795 C.3     1  UNL1        0.0001
     13 C           9.6560   41.7407   11.9567 C.3     1  UNL1        0.0034
     14 C           8.9419   43.0746   11.6875 C.3     1  UNL1        0.0215
     15 C           8.9200   43.4547   10.2080 C.3     1  UNL1        0.0909
     16 C           9.0401   40.9914    9.6113 C.3     1  UNL1        0.0909
     17 C          10.1266   41.0163   10.6890 C.3     1  UNL1        0.0215
     18 N           8.4559   42.3199    9.4108 N.pl3   1  UNL1       -0.3039
     19 C           1.8027   42.3178   12.1455 C.2     1  UNL1        0.2496
     20 N           3.2275   42.3325   12.3101 N.am    1  UNL1       -0.2779
     21 O           1.2912   41.9986   11.0375 O.2     1  UNL1       -0.2698
     22 H           3.5771   42.5887   13.1940 H       1  UNL1        0.1553
     23 C           0.9311   42.6781   13.2778 C.ar    1  UNL1        0.0537
     24 C           0.0870   41.7190   13.8578 C.ar    1  UNL1        0.0042
     25 C          -0.7394   42.0617   14.9319 C.ar    1  UNL1       -0.0041
     26 C          -0.7280   43.3657   15.4341 C.ar    1  UNL1       -0.0218
     27 C          -1.6065   43.7300   16.5760 C.3     1  UNL1        0.0310
     28 C           0.1096   44.3271   14.8624 C.ar    1  UNL1       -0.0041
     29 C           0.9361   43.9844   13.7883 C.ar    1  UNL1        0.0042
@<TRIPOS>BOND
     1    12    13    1
     2    13    14    1
     3    14    15    1
     4    15    18    1
     5    16    18    1
     6    16    17    1
     7    17    13    1
     8     6     7   ar
     9     7     4    1
    10     8    10   ar
    11     9    11   ar
    12     2    20    1
    13     2     3   ar
    14    19    23    1
    15    24    25   ar
    16    26    28   ar
    17    27    26    1
    18    29    23   ar
    19    18     6    1
    20     4     1   ar
    21     4     5   ar
    22    20    19   am
    23     7    10   ar
    24     8    11   ar
    25     9     6   ar
    26     1     2   ar
    27    19    21    2
    28    23    24   ar
    29    25    26   ar
    30    28    29   ar
    31     3     5   ar
    32    20    22    1
@<TRIPOS>MOLECULE
MolPort-010-948-485 ChemDiv-T479-0240 MCULE-7737912314 PubChem-53189980 ZINC000065283002 ZINC65283002
 29 32 0 0 0
SMALL
GASTEIGER

@<TRIPOS>ATOM
      1 C          12.2069   41.5732    8.8483 C.ar    1  UNL1        0.1184
      2 C          11.0907   41.3353    8.0740 C.ar    1  UNL1        0.0912
      3 C          11.3635   40.2548    7.2633 C.ar    1  UNL1        0.1367
      4 N          13.1046   40.6307    8.5038 N.ar    1  UNL1       -0.2080
      5 N          12.6166   39.8515    7.5493 N.ar    1  UNL1       -0.1607
      6 C          15.4838   41.3665    8.5314 C.ar    1  UNL1        0.1036
      7 C          14.4429   40.5450    9.0170 C.ar    1  UNL1        0.1803
      8 C          15.9281   39.6184   10.6196 C.ar    1  UNL1        0.2004
      9 C          16.7320   41.2845    9.1560 C.ar    1  UNL1        0.1182
     10 N          14.7022   39.6848   10.0403 N.ar    1  UNL1       -0.2035
     11 N          16.9307   40.4213   10.1838 N.ar    1  UNL1       -0.2210
     12 C          14.8188   45.6556    6.1585 C.3     1  UNL1        0.0001
     13 C          14.8007   44.2989    5.4814 C.3     1  UNL1        0.0034
     14 C          13.6692   43.4422    6.0708 C.3     1  UNL1        0.0215
     15 C          14.1407   42.0666    6.5391 C.3     1  UNL1        0.0909
     16 C          16.4522   43.0348    6.9364 C.3     1  UNL1        0.0909
     17 C          16.1858   43.6437    5.5577 C.3     1  UNL1        0.0215
     18 N          15.3271   42.2090    7.3822 N.pl3   1  UNL1       -0.3039
     19 C           8.5490   41.4918    8.0274 C.2     1  UNL1        0.2496
     20 N           9.8613   42.0686    8.0761 N.am    1  UNL1       -0.2779
     21 O           8.4033   40.2399    7.9773 O.2     1  UNL1       -0.2698
     22 H           9.9216   43.0506    8.1142 H       1  UNL1        0.1553
     23 C           7.3636   42.3672    8.0356 C.ar    1  UNL1        0.0537
     24 C           7.1085   43.2279    6.9572 C.ar    1  UNL1        0.0042
     25 C           5.9838   44.0579    6.9659 C.ar    1  UNL1       -0.0041
     26 C           5.1058   44.0337    8.0528 C.ar    1  UNL1       -0.0218
     27 C           3.9101   44.9160    8.0621 C.3     1  UNL1        0.0310
     28 C           5.3522   43.1795    9.1310 C.ar    1  UNL1       -0.0041
     29 C           6.4770   42.3494    9.1222 C.ar    1  UNL1        0.0042
@<TRIPOS>BOND
     1    12    13    1
     2    13    14    1
     3    14    15    1
     4    15    18    1
     5    16    18    1
     6    16    17    1
     7    17    13    1
     8     6     7   ar
     9     7     4    1
    10     8    10   ar
    11     9    11   ar
    12     2    20    1
    13     2     3   ar
    14    19    23    1
    15    24    25   ar
    16    26    28   ar
    17    27    26    1
    18    29    23   ar
    19    18     6    1
    20     4     1   ar
    21     4     5   ar
    22    20    19   am
    23     7    10   ar
    24     8    11   ar
    25     9     6   ar
    26     1     2   ar
    27    19    21    2
    28    23    24   ar
    29    25    26   ar
    30    28    29   ar
    31     3     5   ar
    32    20    22    1
