@<TRIPOS>MOLECULE
MolPort-019-814-206 CHEMBL3479987 CSSS00159522515 MCULE-2733536941 PubChem-56713837
 28 31 0 0 0
SMALL
GASTEIGER

@<TRIPOS>ATOM
      1 C           6.9624   42.1144    7.5778 C.3     1  UNL1        0.0793
      2 C           6.7866   43.6145    7.2361 C.3     1  UNL1        0.0622
      3 C           5.4260   44.0853    7.6343 C.ar    1  UNL1        0.0516
      4 C           4.5817   43.3650    8.4128 C.ar    1  UNL1        0.0939
      5 C           3.6466   45.1988    7.9179 C.ar    1  UNL1        0.1745
      6 C           4.9019   41.9714    8.8639 C.3     1  UNL1        0.1575
      7 N           6.3642   41.7251    8.8721 N.3     1  UNL1       -0.2589
      8 N           3.4345   44.0390    8.5876 N.ar    1  UNL1       -0.2271
      9 N           4.8637   45.2618    7.3225 N.ar    1  UNL1       -0.3384
     10 H           5.2437   45.9965    6.7886 H       1  UNL1        0.1672
     11 C           4.2409   41.6056   10.1603 C.ar    1  UNL1        0.1426
     12 C           4.5154   40.4637   10.8876 C.ar    1  UNL1        0.0375
     13 C           3.6893   40.5306   11.9991 C.ar    1  UNL1        0.0358
     14 C           2.9807   41.7065   11.8535 C.ar    1  UNL1        0.1229
     15 C           1.9623   42.2147   12.8095 C.3     1  UNL1        0.0725
     16 O           3.3233   42.3271   10.7546 O.2     1  UNL1       -0.4603
     17 C           7.0416   42.4536    9.9483 C.3     1  UNL1        0.0997
     18 C          10.8120   40.5820   10.8022 C.ar    1  UNL1        0.0503
     19 C          10.2811   40.5481    9.5033 C.ar    1  UNL1        0.0144
     20 C           9.0575   41.1630    9.2234 C.ar    1  UNL1       -0.0016
     21 C           8.3577   41.8208   10.2391 C.ar    1  UNL1       -0.0060
     22 C           8.8774   41.8510   11.5366 C.ar    1  UNL1       -0.0016
     23 C          10.1013   41.2356   11.8151 C.ar    1  UNL1        0.0144
     24 C          14.5100   39.3997   10.9153 C.3     1  UNL1        0.0949
     25 C          13.3067   40.1252   10.4323 C.2     1  UNL1        0.2266
     26 O          13.3995   40.8698    9.4210 O.2     1  UNL1       -0.2748
     27 N          12.0641   39.9629   11.1276 N.am    1  UNL1       -0.2839
     28 H          12.0706   39.3645   11.9093 H       1  UNL1        0.1549
@<TRIPOS>BOND
     1    24    25    1
     2    25    27   am
     3    19    20   ar
     4    21    22   ar
     5    17    21    1
     6    17     7    1
     7     1     7    1
     8     1     2    1
     9     2     3    1
    10     4     8   ar
    11     5     9   ar
    12     6     4    1
    13     6    11    1
    14     6     7    1
    15    11    16   ar
    16    12    13   ar
    17    14    16   ar
    18    15    14    1
    19    23    18   ar
    20    27    18    1
    21     9     3   ar
    22    25    26    2
    23    18    19   ar
    24    20    21   ar
    25     3     4   ar
    26     5     8   ar
    27    11    12   ar
    28    13    14   ar
    29    22    23   ar
    30    27    28    1
    31     9    10    1
@<TRIPOS>MOLECULE
MolPort-019-814-206 CHEMBL3479987 CSSS00159522515 MCULE-2733536941 PubChem-56713837
 28 31 0 0 0
SMALL
GASTEIGER

@<TRIPOS>ATOM
      1 C          11.7215   39.5105    9.3728 C.3     1  UNL1        0.0793
      2 C          12.6450   39.2308   10.5840 C.3     1  UNL1        0.0622
      3 C          14.0671   39.5281   10.2367 C.ar    1  UNL1        0.0516
      4 C          14.4420   40.1899    9.1145 C.ar    1  UNL1        0.0939
      5 C          16.1777   39.7063   10.2261 C.ar    1  UNL1        0.1745
      6 C          13.4578   40.5968    8.0591 C.3     1  UNL1        0.1575
      7 N          12.0881   40.7243    8.6131 N.3     1  UNL1       -0.2589
      8 N          15.7792   40.2946    9.0712 N.ar    1  UNL1       -0.2271
      9 N          15.1491   39.2270   10.9690 N.ar    1  UNL1       -0.3384
     10 H          15.1877   38.7674   11.8388 H       1  UNL1        0.1672
     11 C          13.8902   41.8082    7.2864 C.ar    1  UNL1        0.1426
     12 C          13.1666   42.3858    6.2612 C.ar    1  UNL1        0.0375
     13 C          13.9272   43.4659    5.8401 C.ar    1  UNL1        0.0358
     14 C          15.0500   43.4533    6.6435 C.ar    1  UNL1        0.1229
     15 C          16.1666   44.4315    6.5671 C.3     1  UNL1        0.0725
     16 O          15.0072   42.4602    7.4932 O.2     1  UNL1       -0.4603
     17 C          11.9518   41.8927    9.4872 C.3     1  UNL1        0.0997
     18 C           7.9997   43.5337    9.1189 C.ar    1  UNL1        0.0503
     19 C           8.9054   44.0670   10.0491 C.ar    1  UNL1        0.0144
     20 C          10.1940   43.5379   10.1645 C.ar    1  UNL1       -0.0016
     21 C          10.5884   42.4746    9.3471 C.ar    1  UNL1       -0.0060
     22 C           9.6879   41.9339    8.4244 C.ar    1  UNL1       -0.0016
     23 C           8.3996   42.4641    8.3101 C.ar    1  UNL1        0.0144
     24 C           4.5910   44.8294    7.7816 C.3     1  UNL1        0.0949
     25 C           5.9735   44.2865    7.7415 C.2     1  UNL1        0.2266
     26 O           6.5091   44.0437    6.6281 O.2     1  UNL1       -0.2748
     27 N           6.6698   44.0500    8.9716 N.am    1  UNL1       -0.2839
     28 H           6.1851   44.2641    9.8013 H       1  UNL1        0.1549
@<TRIPOS>BOND
     1    24    25    1
     2    25    27   am
     3    19    20   ar
     4    21    22   ar
     5    17    21    1
     6    17     7    1
     7     1     7    1
     8     1     2    1
     9     2     3    1
    10     4     8   ar
    11     5     9   ar
    12     6     4    1
    13     6    11    1
    14     6     7    1
    15    11    16   ar
    16    12    13   ar
    17    14    16   ar
    18    15    14    1
    19    23    18   ar
    20    27    18    1
    21     9     3   ar
    22    25    26    2
    23    18    19   ar
    24    20    21   ar
    25     3     4   ar
    26     5     8   ar
    27    11    12   ar
    28    13    14   ar
    29    22    23   ar
    30    27    28    1
    31     9    10    1
@<TRIPOS>MOLECULE
MolPort-019-814-206 CHEMBL3479987 CSSS00159522515 MCULE-2733536941 PubChem-56713837
 28 31 0 0 0
SMALL
GASTEIGER

@<TRIPOS>ATOM
      1 C          10.3929   38.8197    7.3134 C.3     1  UNL1        0.0793
      2 C           9.2918   38.6944    6.2318 C.3     1  UNL1        0.0622
      3 C           8.0856   39.4856    6.6198 C.ar    1  UNL1        0.0516
      4 C           8.0720   40.3810    7.6376 C.ar    1  UNL1        0.0939
      5 C           6.1535   40.3447    6.7433 C.ar    1  UNL1        0.1745
      6 C           9.2518   40.5839    8.5405 C.3     1  UNL1        0.1575
      7 N          10.5169   40.1786    7.8814 N.3     1  UNL1       -0.2589
      8 N           6.8497   40.9226    7.7533 N.ar    1  UNL1       -0.2271
      9 N           6.8850   39.4580    6.0235 N.ar    1  UNL1       -0.3384
     10 H           6.6019   38.9217    5.2480 H       1  UNL1        0.1672
     11 C           9.3146   41.9639    9.1261 C.ar    1  UNL1        0.1426
     12 C          10.2578   42.3864   10.0428 C.ar    1  UNL1        0.0375
     13 C           9.9452   43.7114   10.3049 C.ar    1  UNL1        0.0358
     14 C           8.8373   43.9829    9.5270 C.ar    1  UNL1        0.1229
     15 C           8.1338   45.2910    9.4685 C.3     1  UNL1        0.0725
     16 O           8.4799   42.9311    8.8371 O.2     1  UNL1       -0.4603
     17 C          10.9073   41.1063    6.8162 C.3     1  UNL1        0.0997
     18 C          14.9872   42.3298    7.3693 C.ar    1  UNL1        0.0503
     19 C          14.4367   41.3143    8.1667 C.ar    1  UNL1        0.0144
     20 C          13.1112   40.9109    7.9824 C.ar    1  UNL1       -0.0016
     21 C          12.3274   41.5166    6.9960 C.ar    1  UNL1       -0.0060
     22 C          12.8676   42.5343    6.2041 C.ar    1  UNL1       -0.0016
     23 C          14.1934   42.9366    6.3896 C.ar    1  UNL1        0.0144
     24 C          18.4059   44.1566    7.1210 C.3     1  UNL1        0.0949
     25 C          16.9851   43.8397    6.8234 C.2     1  UNL1        0.2266
     26 O          16.3703   44.5158    5.9571 O.2     1  UNL1       -0.2748
     27 N          16.3427   42.7702    7.5287 N.am    1  UNL1       -0.2839
     28 H          16.8884   42.2879    8.1912 H       1  UNL1        0.1549
@<TRIPOS>BOND
     1    24    25    1
     2    25    27   am
     3    19    20   ar
     4    21    22   ar
     5    17    21    1
     6    17     7    1
     7     1     7    1
     8     1     2    1
     9     2     3    1
    10     4     8   ar
    11     5     9   ar
    12     6     4    1
    13     6    11    1
    14     6     7    1
    15    11    16   ar
    16    12    13   ar
    17    14    16   ar
    18    15    14    1
    19    23    18   ar
    20    27    18    1
    21     9     3   ar
    22    25    26    2
    23    18    19   ar
    24    20    21   ar
    25     3     4   ar
    26     5     8   ar
    27    11    12   ar
    28    13    14   ar
    29    22    23   ar
    30    27    28    1
    31     9    10    1
@<TRIPOS>MOLECULE
MolPort-019-814-206 CHEMBL3479987 CSSS00159522515 MCULE-2733536941 PubChem-56713837
 28 31 0 0 0
SMALL
GASTEIGER

@<TRIPOS>ATOM
      1 C          11.2488   39.3999    9.6630 C.3     1  UNL1        0.0793
      2 C          10.2049   38.8917    8.6382 C.3     1  UNL1        0.0622
      3 C          10.0233   39.8876    7.5397 C.ar    1  UNL1        0.0516
      4 C          10.8454   40.9478    7.3456 C.ar    1  UNL1        0.0939
      5 C           9.3466   40.9718    5.8506 C.ar    1  UNL1        0.1745
      6 C          11.9632   41.2768    8.2893 C.3     1  UNL1        0.1575
      7 N          12.4064   40.0804    9.0453 N.3     1  UNL1       -0.2589
      8 N          10.4232   41.6668    6.2941 N.ar    1  UNL1       -0.2271
      9 N           9.0748   39.8692    6.5922 N.ar    1  UNL1       -0.3384
     10 H           8.3529   39.2119    6.4651 H       1  UNL1        0.1672
     11 C          13.0976   42.0029    7.6280 C.ar    1  UNL1        0.1426
     12 C          14.4322   41.8210    7.9347 C.ar    1  UNL1        0.0375
     13 C          15.1214   42.6801    7.0926 C.ar    1  UNL1        0.0358
     14 C          14.1481   43.3134    6.3458 C.ar    1  UNL1        0.1229
     15 C          14.4052   44.3332    5.2954 C.3     1  UNL1        0.0725
     16 O          12.9548   42.8970    6.6815 O.2     1  UNL1       -0.4603
     17 C          13.1238   39.1248    8.1969 C.3     1  UNL1        0.0997
     18 C          16.5742   37.6636   10.2964 C.ar    1  UNL1        0.0503
     19 C          15.7852   36.7890    9.5330 C.ar    1  UNL1        0.0144
     20 C          14.6663   37.2653    8.8439 C.ar    1  UNL1       -0.0016
     21 C          14.3305   38.6207    8.9090 C.ar    1  UNL1       -0.0060
     22 C          15.1078   39.4952    9.6744 C.ar    1  UNL1       -0.0016
     23 C          16.2265   39.0174   10.3630 C.ar    1  UNL1        0.0144
     24 C          19.6502   35.7024   11.6299 C.3     1  UNL1        0.0949
     25 C          18.4729   36.0105   10.7774 C.2     1  UNL1        0.2266
     26 O          18.1491   35.2110    9.8600 O.2     1  UNL1       -0.2748
     27 N          17.7292   37.2119   11.0167 N.am    1  UNL1       -0.2839
     28 H          18.0437   37.7867   11.7516 H       1  UNL1        0.1549
@<TRIPOS>BOND
     1    24    25    1
     2    25    27   am
     3    19    20   ar
     4    21    22   ar
     5    17    21    1
     6    17     7    1
     7     1     7    1
     8     1     2    1
     9     2     3    1
    10     4     8   ar
    11     5     9   ar
    12     6     4    1
    13     6    11    1
    14     6     7    1
    15    11    16   ar
    16    12    13   ar
    17    14    16   ar
    18    15    14    1
    19    23    18   ar
    20    27    18    1
    21     9     3   ar
    22    25    26    2
    23    18    19   ar
    24    20    21   ar
    25     3     4   ar
    26     5     8   ar
    27    11    12   ar
    28    13    14   ar
    29    22    23   ar
    30    27    28    1
    31     9    10    1
@<TRIPOS>MOLECULE
MolPort-019-814-206 CHEMBL3479987 CSSS00159522515 MCULE-2733536941 PubChem-56713837
 28 31 0 0 0
SMALL
GASTEIGER

@<TRIPOS>ATOM
      1 C          11.7714   39.2098    9.6385 C.3     1  UNL1        0.0793
      2 C          12.7626   38.9429   10.7980 C.3     1  UNL1        0.0622
      3 C          14.1571   39.2794   10.3813 C.ar    1  UNL1        0.0516
      4 C          14.4572   39.9605    9.2482 C.ar    1  UNL1        0.0939
      5 C          16.2592   39.5113   10.2645 C.ar    1  UNL1        0.1745
      6 C          13.4101   40.3515    8.2488 C.3     1  UNL1        0.1575
      7 N          12.0680   40.4392    8.8735 N.3     1  UNL1       -0.2589
      8 N          15.7873   40.0995    9.1375 N.ar    1  UNL1       -0.2271
      9 N          15.2825   38.9994   11.0542 N.ar    1  UNL1       -0.3384
     10 H          15.3773   38.5332   11.9161 H       1  UNL1        0.1672
     11 C          13.7718   41.5803    7.4674 C.ar    1  UNL1        0.1426
     12 C          13.0194   42.1042    6.4340 C.ar    1  UNL1        0.0375
     13 C          13.7150   43.2248    6.0067 C.ar    1  UNL1        0.0358
     14 C          14.8326   43.2874    6.8150 C.ar    1  UNL1        0.1229
     15 C          15.8881   44.3309    6.7347 C.3     1  UNL1        0.0725
     16 O          14.8462   42.3008    7.6731 O.2     1  UNL1       -0.4603
     17 C          11.9477   41.5959    9.7652 C.3     1  UNL1        0.0997
     18 C           7.8815   41.9276   11.1082 C.ar    1  UNL1        0.0503
     19 C           8.8871   41.5008   11.9895 C.ar    1  UNL1        0.0144
     20 C          10.2117   41.3994   11.5549 C.ar    1  UNL1       -0.0016
     21 C          10.5417   41.7287   10.2370 C.ar    1  UNL1       -0.0060
     22 C           9.5430   42.1465    9.3522 C.ar    1  UNL1       -0.0016
     23 C           8.2188   42.2474    9.7883 C.ar    1  UNL1        0.0144
     24 C           4.0101   41.7820   11.3867 C.3     1  UNL1        0.0949
     25 C           5.3614   41.5708   10.8062 C.2     1  UNL1        0.2266
     26 O           5.4723   40.9800    9.6997 O.2     1  UNL1       -0.2748
     27 N           6.5119   42.0442   11.5176 N.am    1  UNL1       -0.2839
     28 H           6.3449   42.4961   12.3761 H       1  UNL1        0.1549
@<TRIPOS>BOND
     1    24    25    1
     2    25    27   am
     3    19    20   ar
     4    21    22   ar
     5    17    21    1
     6    17     7    1
     7     1     7    1
     8     1     2    1
     9     2     3    1
    10     4     8   ar
    11     5     9   ar
    12     6     4    1
    13     6    11    1
    14     6     7    1
    15    11    16   ar
    16    12    13   ar
    17    14    16   ar
    18    15    14    1
    19    23    18   ar
    20    27    18    1
    21     9     3   ar
    22    25    26    2
    23    18    19   ar
    24    20    21   ar
    25     3     4   ar
    26     5     8   ar
    27    11    12   ar
    28    13    14   ar
    29    22    23   ar
    30    27    28    1
    31     9    10    1
@<TRIPOS>MOLECULE
MolPort-019-814-206 CHEMBL3479987 CSSS00159522515 MCULE-2733536941 PubChem-56713837
 28 31 0 0 0
SMALL
GASTEIGER

@<TRIPOS>ATOM
      1 C          13.7418   38.4632   11.0923 C.3     1  UNL1        0.0793
      2 C          14.8505   39.5424   11.1579 C.3     1  UNL1        0.0622
      3 C          16.1868   38.9367   10.8772 C.ar    1  UNL1        0.0516
      4 C          16.3537   37.6850   10.3839 C.ar    1  UNL1        0.0939
      5 C          18.2597   38.5693   10.6434 C.ar    1  UNL1        0.1745
      6 C          15.2020   36.7490   10.1706 C.3     1  UNL1        0.1575
      7 N          13.9268   37.4862    9.9987 N.3     1  UNL1       -0.2589
      8 N          17.6619   37.4177   10.2496 N.ar    1  UNL1       -0.2271
      9 N          17.3809   39.5263   11.0326 N.ar    1  UNL1       -0.3384
     10 H          17.5738   40.4371   11.3529 H       1  UNL1        0.1672
     11 C          15.4501   35.7492    9.0795 C.ar    1  UNL1        0.1426
     12 C          15.8958   36.0652    7.8107 C.ar    1  UNL1        0.0375
     13 C          15.9861   34.8538    7.1425 C.ar    1  UNL1        0.0358
     14 C          15.5862   33.9032    8.0605 C.ar    1  UNL1        0.1229
     15 C          15.5183   32.4409    7.8022 C.3     1  UNL1        0.0725
     16 O          15.2715   34.4575    9.2023 O.2     1  UNL1       -0.4603
     17 C          13.8640   38.1904    8.7150 C.3     1  UNL1        0.0997
     18 C           9.7994   39.3084    7.8922 C.ar    1  UNL1        0.0503
     19 C          10.8596   40.1235    7.4658 C.ar    1  UNL1        0.0144
     20 C          12.1828   39.7566    7.7271 C.ar    1  UNL1       -0.0016
     21 C          12.4561   38.5694    8.4127 C.ar    1  UNL1       -0.0060
     22 C          11.4040   37.7575    8.8471 C.ar    1  UNL1       -0.0016
     23 C          10.0813   38.1258    8.5849 C.ar    1  UNL1        0.0144
     24 C           6.2909   39.9023    6.3351 C.3     1  UNL1        0.0949
     25 C           7.7157   39.4875    6.4105 C.2     1  UNL1        0.2266
     26 O           8.2711   38.9993    5.3913 O.2     1  UNL1       -0.2748
     27 N           8.4295   39.6516    7.6424 N.am    1  UNL1       -0.2839
     28 H           7.9275   40.0400    8.3950 H       1  UNL1        0.1549
@<TRIPOS>BOND
     1    24    25    1
     2    25    27   am
     3    19    20   ar
     4    21    22   ar
     5    17    21    1
     6    17     7    1
     7     1     7    1
     8     1     2    1
     9     2     3    1
    10     4     8   ar
    11     5     9   ar
    12     6     4    1
    13     6    11    1
    14     6     7    1
    15    11    16   ar
    16    12    13   ar
    17    14    16   ar
    18    15    14    1
    19    23    18   ar
    20    27    18    1
    21     9     3   ar
    22    25    26    2
    23    18    19   ar
    24    20    21   ar
    25     3     4   ar
    26     5     8   ar
    27    11    12   ar
    28    13    14   ar
    29    22    23   ar
    30    27    28    1
    31     9    10    1
@<TRIPOS>MOLECULE
MolPort-019-814-206 CHEMBL3479987 CSSS00159522515 MCULE-2733536941 PubChem-56713837
 28 31 0 0 0
SMALL
GASTEIGER

@<TRIPOS>ATOM
      1 C          13.8610   38.5581   10.9808 C.3     1  UNL1        0.0793
      2 C          14.9933   39.6145   10.9868 C.3     1  UNL1        0.0622
      3 C          16.3110   38.9700   10.7046 C.ar    1  UNL1        0.0516
      4 C          16.4422   37.6978   10.2549 C.ar    1  UNL1        0.0939
      5 C          18.3709   38.5493   10.4474 C.ar    1  UNL1        0.1745
      6 C          15.2672   36.7799   10.0969 C.3     1  UNL1        0.1575
      7 N          14.0048   37.5380    9.9208 N.3     1  UNL1       -0.2589
      8 N          17.7417   37.3973   10.1070 N.ar    1  UNL1       -0.2271
      9 N          17.5200   39.5387   10.8167 N.ar    1  UNL1       -0.3384
     10 H          17.7381   40.4561   11.0997 H       1  UNL1        0.1672
     11 C          15.4736   35.7359    9.0391 C.ar    1  UNL1        0.1426
     12 C          16.0403   35.9724    7.8017 C.ar    1  UNL1        0.0375
     13 C          16.0364   34.7450    7.1570 C.ar    1  UNL1        0.0358
     14 C          15.4662   33.8656    8.0558 C.ar    1  UNL1        0.1229
     15 C          15.2480   32.4157    7.8118 C.3     1  UNL1        0.0725
     16 O          15.1388   34.4759    9.1651 O.2     1  UNL1       -0.4603
     17 C          13.9329   38.1962    8.6134 C.3     1  UNL1        0.0997
     18 C          10.8469   41.1825    8.6934 C.ar    1  UNL1        0.0503
     19 C          12.1309   41.5015    8.2246 C.ar    1  UNL1        0.0144
     20 C          13.1336   40.5283    8.1918 C.ar    1  UNL1       -0.0016
     21 C          12.8587   39.2272    8.6230 C.ar    1  UNL1       -0.0060
     22 C          11.5839   38.9056    9.0987 C.ar    1  UNL1       -0.0016
     23 C          10.5822   39.8800    9.1309 C.ar    1  UNL1        0.0144
     24 C           8.5394   44.1957    9.5194 C.3     1  UNL1        0.0949
     25 C           9.7149   43.2915    9.6099 C.2     1  UNL1        0.2266
     26 O          10.6217   43.5402   10.4474 O.2     1  UNL1       -0.2748
     27 N           9.7929   42.1539    8.7418 N.am    1  UNL1       -0.2839
     28 H           9.0456   42.0259    8.1137 H       1  UNL1        0.1549
@<TRIPOS>BOND
     1    24    25    1
     2    25    27   am
     3    19    20   ar
     4    21    22   ar
     5    17    21    1
     6    17     7    1
     7     1     7    1
     8     1     2    1
     9     2     3    1
    10     4     8   ar
    11     5     9   ar
    12     6     4    1
    13     6    11    1
    14     6     7    1
    15    11    16   ar
    16    12    13   ar
    17    14    16   ar
    18    15    14    1
    19    23    18   ar
    20    27    18    1
    21     9     3   ar
    22    25    26    2
    23    18    19   ar
    24    20    21   ar
    25     3     4   ar
    26     5     8   ar
    27    11    12   ar
    28    13    14   ar
    29    22    23   ar
    30    27    28    1
    31     9    10    1
@<TRIPOS>MOLECULE
MolPort-019-814-206 CHEMBL3479987 CSSS00159522515 MCULE-2733536941 PubChem-56713837
 28 31 0 0 0
SMALL
GASTEIGER

@<TRIPOS>ATOM
      1 C          12.6848   38.3698   10.2717 C.3     1  UNL1        0.0793
      2 C          13.7736   38.3706   11.3729 C.3     1  UNL1        0.0622
      3 C          15.0411   38.9674   10.8543 C.ar    1  UNL1        0.0516
      4 C          15.1276   39.6396    9.6803 C.ar    1  UNL1        0.0939
      5 C          17.0380   39.6230   10.5923 C.ar    1  UNL1        0.1745
      6 C          13.9673   39.7564    8.7378 C.3     1  UNL1        0.1575
      7 N          12.6739   39.5951    9.4451 N.3     1  UNL1       -0.2589
      8 N          16.3907   40.0451    9.4781 N.ar    1  UNL1       -0.2271
      9 N          16.2362   38.9594   11.4620 N.ar    1  UNL1       -0.3384
     10 H          16.4748   38.5656   12.3322 H       1  UNL1        0.1672
     11 C          14.0191   40.9938    7.8906 C.ar    1  UNL1        0.1426
     12 C          13.0484   41.3639    6.9801 C.ar    1  UNL1        0.0375
     13 C          13.4966   42.5560    6.4320 C.ar    1  UNL1        0.0358
     14 C          14.7028   42.8097    7.0540 C.ar    1  UNL1        0.1229
     15 C          15.5671   43.9906    6.7934 C.3     1  UNL1        0.0725
     16 O          14.9934   41.8689    7.9145 O.2     1  UNL1       -0.4603
     17 C          12.3645   40.7440   10.3005 C.3     1  UNL1        0.0997
     18 C           8.1687   41.6269   10.0472 C.ar    1  UNL1        0.0503
     19 C           8.8561   41.7900   11.2601 C.ar    1  UNL1        0.0144
     20 C          10.2229   41.5095   11.3414 C.ar    1  UNL1       -0.0016
     21 C          10.9141   41.0685   10.2091 C.ar    1  UNL1       -0.0060
     22 C          10.2332   40.8963    9.0002 C.ar    1  UNL1       -0.0016
     23 C           8.8662   41.1772    8.9206 C.ar    1  UNL1        0.0144
     24 C           4.6886   43.1335    9.2072 C.3     1  UNL1        0.0949
     25 C           6.1686   43.0043    9.2275 C.2     1  UNL1        0.2266
     26 O           6.8713   43.8628    8.6318 O.2     1  UNL1       -0.2748
     27 N           6.7670   41.9047    9.9252 N.am    1  UNL1       -0.2839
     28 H           6.1522   41.2748   10.3662 H       1  UNL1        0.1549
@<TRIPOS>BOND
     1    24    25    1
     2    25    27   am
     3    19    20   ar
     4    21    22   ar
     5    17    21    1
     6    17     7    1
     7     1     7    1
     8     1     2    1
     9     2     3    1
    10     4     8   ar
    11     5     9   ar
    12     6     4    1
    13     6    11    1
    14     6     7    1
    15    11    16   ar
    16    12    13   ar
    17    14    16   ar
    18    15    14    1
    19    23    18   ar
    20    27    18    1
    21     9     3   ar
    22    25    26    2
    23    18    19   ar
    24    20    21   ar
    25     3     4   ar
    26     5     8   ar
    27    11    12   ar
    28    13    14   ar
    29    22    23   ar
    30    27    28    1
    31     9    10    1
@<TRIPOS>MOLECULE
MolPort-019-814-206 CHEMBL3479987 CSSS00159522515 MCULE-2733536941 PubChem-56713837
 28 31 0 0 0
SMALL
GASTEIGER

@<TRIPOS>ATOM
      1 C          10.5682   38.4110    8.3222 C.3     1  UNL1        0.0793
      2 C          11.1693   37.9047    9.6566 C.3     1  UNL1        0.0622
      3 C          12.6317   38.2029    9.7176 C.ar    1  UNL1        0.0516
      4 C          13.2662   39.0246    8.8457 C.ar    1  UNL1        0.0939
      5 C          14.6801   38.3041   10.2469 C.ar    1  UNL1        0.1745
      6 C          12.5675   39.6332    7.6669 C.3     1  UNL1        0.1575
      7 N          11.1034   39.7182    7.8869 N.3     1  UNL1       -0.2589
      8 N          14.5729   39.0865    9.1447 N.ar    1  UNL1       -0.2271
      9 N          13.5035   37.7477   10.6288 N.ar    1  UNL1       -0.3384
     10 H          13.3308   37.1516   11.3930 H       1  UNL1        0.1672
     11 C          13.1697   40.9378    7.2346 C.ar    1  UNL1        0.1426
     12 C          12.5686   41.8328    6.3709 C.ar    1  UNL1        0.0375
     13 C          13.4637   42.8851    6.2536 C.ar    1  UNL1        0.0358
     14 C          14.5344   42.5409    7.0544 C.ar    1  UNL1        0.1229
     15 C          15.7536   43.3677    7.2533 C.3     1  UNL1        0.0725
     16 O          14.3387   41.3809    7.6254 O.2     1  UNL1       -0.4603
     17 C          10.7522   40.7328    8.8843 C.3     1  UNL1        0.0997
     18 C           6.9018   42.4259    8.0148 C.ar    1  UNL1        0.0503
     19 C           7.8563   42.2741    6.9970 C.ar    1  UNL1        0.0144
     20 C           9.1070   41.7168    7.2779 C.ar    1  UNL1       -0.0016
     21 C           9.4109   41.3024    8.5780 C.ar    1  UNL1       -0.0060
     22 C           8.4673   41.4585    9.5977 C.ar    1  UNL1       -0.0016
     23 C           7.2170   42.0161    9.3151 C.ar    1  UNL1        0.0144
     24 C           3.7885   44.7346    7.7619 C.3     1  UNL1        0.0949
     25 C           5.1740   44.3172    8.0993 C.2     1  UNL1        0.2266
     26 O           5.9422   45.1336    8.6729 O.2     1  UNL1       -0.2748
     27 N           5.6085   42.9931    7.7649 N.am    1  UNL1       -0.2839
     28 H           4.9511   42.4127    7.3173 H       1  UNL1        0.1549
@<TRIPOS>BOND
     1    24    25    1
     2    25    27   am
     3    19    20   ar
     4    21    22   ar
     5    17    21    1
     6    17     7    1
     7     1     7    1
     8     1     2    1
     9     2     3    1
    10     4     8   ar
    11     5     9   ar
    12     6     4    1
    13     6    11    1
    14     6     7    1
    15    11    16   ar
    16    12    13   ar
    17    14    16   ar
    18    15    14    1
    19    23    18   ar
    20    27    18    1
    21     9     3   ar
    22    25    26    2
    23    18    19   ar
    24    20    21   ar
    25     3     4   ar
    26     5     8   ar
    27    11    12   ar
    28    13    14   ar
    29    22    23   ar
    30    27    28    1
    31     9    10    1
@<TRIPOS>MOLECULE
MolPort-019-814-206 CHEMBL3479987 CSSS00159522515 MCULE-2733536941 PubChem-56713837
 28 31 0 0 0
SMALL
GASTEIGER

@<TRIPOS>ATOM
      1 C          15.5010   37.8253   11.4428 C.3     1  UNL1        0.0793
      2 C          16.5474   38.9668   11.4556 C.3     1  UNL1        0.0622
      3 C          17.7457   38.5864   10.6488 C.ar    1  UNL1        0.0516
      4 C          17.7832   37.5117    9.8234 C.ar    1  UNL1        0.0939
      5 C          19.6524   38.5013    9.7304 C.ar    1  UNL1        0.1745
      6 C          16.6464   36.5390    9.7242 C.3     1  UNL1        0.1575
      7 N          15.3625   37.1601   10.1302 N.3     1  UNL1       -0.2589
      8 N          18.9915   37.4205    9.2468 N.ar    1  UNL1       -0.2271
      9 N          18.9136   39.2426   10.5931 N.ar    1  UNL1       -0.3384
     10 H          19.1731   40.0663   11.0658 H       1  UNL1        0.1672
     11 C          16.5692   35.8578    8.3895 C.ar    1  UNL1        0.1426
     12 C          15.9005   34.6731    8.1494 C.ar    1  UNL1        0.0375
     13 C          16.0860   34.4155    6.7998 C.ar    1  UNL1        0.0358
     14 C          16.8532   35.4641    6.3330 C.ar    1  UNL1        0.1229
     15 C          17.3113   35.6290    4.9285 C.3     1  UNL1        0.0725
     16 O          17.1292   36.3070    7.2939 O.2     1  UNL1       -0.4603
     17 C          14.8865   38.1383    9.1482 C.3     1  UNL1        0.0997
     18 C          11.0655   39.7158   10.3142 C.ar    1  UNL1        0.0503
     19 C          11.1883   38.3753    9.9164 C.ar    1  UNL1        0.0144
     20 C          12.4327   37.8596    9.5436 C.ar    1  UNL1       -0.0016
     21 C          13.5649   38.6790    9.5703 C.ar    1  UNL1       -0.0060
     22 C          13.4476   40.0172    9.9578 C.ar    1  UNL1       -0.0016
     23 C          12.2023   40.5316   10.3304 C.ar    1  UNL1        0.0144
     24 C           8.1084   42.0760   11.1923 C.3     1  UNL1        0.0949
     25 C           9.4724   41.6728   10.7627 C.2     1  UNL1        0.2266
     26 O          10.3113   42.5612   10.4580 O.2     1  UNL1       -0.2748
     27 N           9.8060   40.2803   10.7036 N.am    1  UNL1       -0.2839
     28 H           9.0972   39.6456   10.9566 H       1  UNL1        0.1549
@<TRIPOS>BOND
     1    24    25    1
     2    25    27   am
     3    19    20   ar
     4    21    22   ar
     5    17    21    1
     6    17     7    1
     7     1     7    1
     8     1     2    1
     9     2     3    1
    10     4     8   ar
    11     5     9   ar
    12     6     4    1
    13     6    11    1
    14     6     7    1
    15    11    16   ar
    16    12    13   ar
    17    14    16   ar
    18    15    14    1
    19    23    18   ar
    20    27    18    1
    21     9     3   ar
    22    25    26    2
    23    18    19   ar
    24    20    21   ar
    25     3     4   ar
    26     5     8   ar
    27    11    12   ar
    28    13    14   ar
    29    22    23   ar
    30    27    28    1
    31     9    10    1
