@<TRIPOS>MOLECULE
MolPort-004-989-144 CSSS09880947379 MCULE-5344949372 PubChem-45163881
 36 40 0 0 0
SMALL
GASTEIGER

@<TRIPOS>ATOM
      1 C          14.0471   39.4164    9.2079 C.ar    1  UNL1        0.1514
      2 C          13.4138   38.3578    8.5498 C.ar    1  UNL1        0.0760
      3 C          14.3755   37.3780    8.3743 C.ar    1  UNL1        0.0505
      4 C          14.3643   36.1563    7.7079 C.ar    1  UNL1        0.0202
      5 C          15.5604   35.4190    7.6734 C.ar    1  UNL1        0.0642
      6 C          16.7213   35.9496    8.2884 C.ar    1  UNL1        0.1147
      7 C          15.5229   37.8574    8.9447 C.ar    1  UNL1        0.1453
      8 N          16.6899   37.1656    8.9098 N.ar    1  UNL1       -0.2254
      9 N          15.3430   39.0874    9.4606 N.ar    1  UNL1       -0.3040
     10 C          11.5287   39.3223    7.1222 C.2     1  UNL1        0.2495
     11 O          12.2956   40.0569    6.4424 O.2     1  UNL1       -0.2698
     12 N          12.0705   38.3719    8.0477 N.am    1  UNL1       -0.2790
     13 H          11.4656   37.6643    8.3680 H       1  UNL1        0.1552
     14 C          10.0711   39.4011    6.9226 C.ar    1  UNL1        0.0537
     15 C           9.4907   40.5625    6.3917 C.ar    1  UNL1        0.0045
     16 C           8.1078   40.6381    6.2003 C.ar    1  UNL1        0.0001
     17 C           7.2955   39.5520    6.5370 C.ar    1  UNL1        0.0000
     18 C           7.8657   38.3904    7.0653 C.ar    1  UNL1        0.0001
     19 C           9.2482   38.3154    7.2578 C.ar    1  UNL1        0.0045
     20 C          13.4140   40.7030    9.5720 C.2     1  UNL1        0.3587
     21 O          13.6632   41.7394    8.8971 O.2     1  UNL1       -0.2432
     22 C          11.1461   40.9862   10.4888 C.3     1  UNL1        0.2560
     23 O          12.5391   40.7713   10.6576 O.3     1  UNL1       -0.4403
     24 N          15.5752   34.1491    7.0066 N.pl3   1  UNL1       -0.3320
     25 H          14.9747   33.4525    7.3579 H       1  UNL1        0.1468
     26 C          16.4002   33.7949    5.8534 C.3     1  UNL1        0.0808
     27 C          17.6012   34.7028    5.7300 C.3     1  UNL1        0.0320
     28 C          18.1664   34.4686    4.3491 C.3     1  UNL1        0.0593
     29 C          15.6130   33.8785    4.5615 C.3     1  UNL1        0.0770
     30 S          16.7771   34.2104    3.2020 S.3     1  UNL1       -0.1385
     31 C          16.3765   39.9169   10.0708 C.3     1  UNL1        0.1371
     32 C          16.9241   39.2501   11.3237 C.3     1  UNL1        0.1378
     33 C          18.1710   38.4760   10.9826 C.3     1  UNL1        0.0341
     34 C          18.0857   37.2982   11.8896 C.3     1  UNL1        0.0346
     35 C          16.6008   37.1419   12.0952 C.3     1  UNL1        0.1422
     36 O          15.9655   38.3788   11.8770 O.3     1  UNL1       -0.3543
@<TRIPOS>BOND
     1    22    23    1
     2    20    23    1
     3    20     1    1
     4     2     3   ar
     5     2    12    1
     6     4     5   ar
     7     5    24    1
     8     6     8   ar
     9     7     9   ar
    10     7     3   ar
    11    31     9    1
    12    32    31    1
    13    32    33    1
    14    32    36    1
    15    33    34    1
    16    34    35    1
    17    35    36    1
    18    26    24    1
    19    26    27    1
    20    27    28    1
    21    28    30    1
    22    29    30    1
    23    29    26    1
    24    10    14    1
    25    15    16   ar
    26    17    18   ar
    27    19    14   ar
    28     9     1   ar
    29    12    10   am
    30    20    21    2
    31     1     2   ar
    32     3     4   ar
    33     5     6   ar
    34     7     8   ar
    35    10    11    2
    36    14    15   ar
    37    16    17   ar
    38    18    19   ar
    39    24    25    1
    40    12    13    1
@<TRIPOS>MOLECULE
MolPort-004-989-144 CSSS09880947379 MCULE-5344949372 PubChem-45163881
 36 40 0 0 0
SMALL
GASTEIGER

@<TRIPOS>ATOM
      1 C          13.1450   41.0867    8.6821 C.ar    1  UNL1        0.1514
      2 C          12.4668   39.8657    8.6178 C.ar    1  UNL1        0.0760
      3 C          13.4170   38.8817    8.8288 C.ar    1  UNL1        0.0505
      4 C          13.3592   37.4919    8.7838 C.ar    1  UNL1        0.0202
      5 C          14.5530   36.7804    8.9942 C.ar    1  UNL1        0.0642
      6 C          15.7565   37.4938    9.2173 C.ar    1  UNL1        0.1147
      7 C          14.6038   39.5298    9.0362 C.ar    1  UNL1        0.1453
      8 N          15.7682   38.8597    9.2281 N.ar    1  UNL1       -0.2254
      9 N          14.4590   40.8655    8.9578 N.ar    1  UNL1       -0.3040
     10 C          10.4895   40.0529    7.0124 C.2     1  UNL1        0.2495
     11 O          11.2119   40.2774    6.0037 O.2     1  UNL1       -0.2698
     12 N          11.0873   39.6953    8.2647 N.am    1  UNL1       -0.2790
     13 H          10.4974   39.2964    8.9445 H       1  UNL1        0.1552
     14 C           9.0223   40.1022    6.8889 C.ar    1  UNL1        0.0537
     15 C           8.2914   41.1154    7.5269 C.ar    1  UNL1        0.0045
     16 C           6.8991   41.1643    7.4092 C.ar    1  UNL1        0.0001
     17 C           6.2277   40.2012    6.6514 C.ar    1  UNL1        0.0000
     18 C           6.9483   39.1889    6.0113 C.ar    1  UNL1        0.0001
     19 C           8.3402   39.1393    6.1299 C.ar    1  UNL1        0.0045
     20 C          12.5357   42.4192    8.4769 C.2     1  UNL1        0.3587
     21 O          12.6070   42.9757    7.3468 O.2     1  UNL1       -0.2432
     22 C          10.4705   42.9921    9.6895 C.3     1  UNL1        0.2560
     23 O          11.8794   43.0595    9.5294 O.3     1  UNL1       -0.4403
     24 N          14.5213   35.3466    8.9685 N.pl3   1  UNL1       -0.3320
     25 H          13.7302   34.9096    9.3590 H       1  UNL1        0.1468
     26 C          15.5562   34.4751    8.4156 C.3     1  UNL1        0.0808
     27 C          15.9154   34.8675    7.0018 C.3     1  UNL1        0.0320
     28 C          16.7137   33.7174    6.4352 C.3     1  UNL1        0.0593
     29 C          15.1129   33.0263    8.4032 C.3     1  UNL1        0.0770
     30 S          16.0057   32.1657    7.0706 S.3     1  UNL1       -0.1385
     31 C          15.5334   41.8480    9.0521 C.3     1  UNL1        0.1371
     32 C          16.0628   42.1930    7.6682 C.3     1  UNL1        0.1378
     33 C          17.5523   42.4105    7.7346 C.3     1  UNL1        0.0341
     34 C          17.7723   43.4901    6.7330 C.3     1  UNL1        0.0346
     35 C          16.4559   44.2241    6.7386 C.3     1  UNL1        0.1422
     36 O          15.4384   43.3566    7.1779 O.3     1  UNL1       -0.3543
@<TRIPOS>BOND
     1    22    23    1
     2    20    23    1
     3    20     1    1
     4     2     3   ar
     5     2    12    1
     6     4     5   ar
     7     5    24    1
     8     6     8   ar
     9     7     9   ar
    10     7     3   ar
    11    31     9    1
    12    32    31    1
    13    32    33    1
    14    32    36    1
    15    33    34    1
    16    34    35    1
    17    35    36    1
    18    26    24    1
    19    26    27    1
    20    27    28    1
    21    28    30    1
    22    29    30    1
    23    29    26    1
    24    10    14    1
    25    15    16   ar
    26    17    18   ar
    27    19    14   ar
    28     9     1   ar
    29    12    10   am
    30    20    21    2
    31     1     2   ar
    32     3     4   ar
    33     5     6   ar
    34     7     8   ar
    35    10    11    2
    36    14    15   ar
    37    16    17   ar
    38    18    19   ar
    39    24    25    1
    40    12    13    1
@<TRIPOS>MOLECULE
MolPort-004-989-144 CSSS09880947379 MCULE-5344949372 PubChem-45163881
 36 40 0 0 0
SMALL
GASTEIGER

@<TRIPOS>ATOM
      1 C          10.3338   41.0876   11.0124 C.ar    1  UNL1        0.1514
      2 C           9.9940   41.7811    9.8469 C.ar    1  UNL1        0.0760
      3 C          11.0928   41.6961    9.0096 C.ar    1  UNL1        0.0505
      4 C          11.3799   42.2646    7.7722 C.ar    1  UNL1        0.0202
      5 C          12.6451   42.0128    7.2143 C.ar    1  UNL1        0.0642
      6 C          13.5755   41.2213    7.9320 C.ar    1  UNL1        0.1147
      7 C          12.0260   40.9473    9.6729 C.ar    1  UNL1        0.1453
      8 N          13.2570   40.7047    9.1557 N.ar    1  UNL1       -0.2254
      9 N          11.5832   40.5639   10.8846 N.ar    1  UNL1       -0.3040
     10 C           7.5830   42.0494    9.0490 C.2     1  UNL1        0.2495
     11 O           7.3903   40.8098    8.9222 O.2     1  UNL1       -0.2698
     12 N           8.7913   42.5360    9.6461 N.am    1  UNL1       -0.2790
     13 H           8.7963   43.4738    9.9457 H       1  UNL1        0.1552
     14 C           6.5368   43.0000    8.6340 C.ar    1  UNL1        0.0537
     15 C           5.2443   42.9101    9.1717 C.ar    1  UNL1        0.0045
     16 C           4.2510   43.8126    8.7798 C.ar    1  UNL1        0.0001
     17 C           4.5434   44.8125    7.8485 C.ar    1  UNL1        0.0000
     18 C           5.8289   44.9101    7.3087 C.ar    1  UNL1        0.0001
     19 C           6.8218   44.0070    7.6996 C.ar    1  UNL1        0.0045
     20 C           9.4746   40.9454   12.2084 C.2     1  UNL1        0.3587
     21 O           8.2518   40.6656   12.0742 O.2     1  UNL1       -0.2432
     22 C           9.2196   41.0258   14.6564 C.3     1  UNL1        0.2560
     23 O          10.0150   41.1164   13.4841 O.3     1  UNL1       -0.4403
     24 N          12.9638   42.5732    5.9329 N.pl3   1  UNL1       -0.3320
     25 H          12.2610   42.5429    5.2442 H       1  UNL1        0.1468
     26 C          14.2365   43.1851    5.5564 C.3     1  UNL1        0.0808
     27 C          15.3287   42.8469    6.5436 C.3     1  UNL1        0.0320
     28 C          16.4705   43.7904    6.2484 C.3     1  UNL1        0.0593
     29 C          14.1248   44.6940    5.4776 C.3     1  UNL1        0.0770
     30 S          15.7694   45.4073    5.7936 S.3     1  UNL1       -0.1385
     31 C          12.3513   39.8230   11.8794 C.3     1  UNL1        0.1371
     32 C          13.4105   38.9651   11.2039 C.3     1  UNL1        0.1378
     33 C          12.8197   37.6303   10.8302 C.3     1  UNL1        0.0341
     34 C          13.9621   36.6967   11.0315 C.3     1  UNL1        0.0346
     35 C          14.7748   37.3881   12.0961 C.3     1  UNL1        0.1422
     36 O          14.5085   38.7698   12.0644 O.3     1  UNL1       -0.3543
@<TRIPOS>BOND
     1    22    23    1
     2    20    23    1
     3    20     1    1
     4     2     3   ar
     5     2    12    1
     6     4     5   ar
     7     5    24    1
     8     6     8   ar
     9     7     9   ar
    10     7     3   ar
    11    31     9    1
    12    32    31    1
    13    32    33    1
    14    32    36    1
    15    33    34    1
    16    34    35    1
    17    35    36    1
    18    26    24    1
    19    26    27    1
    20    27    28    1
    21    28    30    1
    22    29    30    1
    23    29    26    1
    24    10    14    1
    25    15    16   ar
    26    17    18   ar
    27    19    14   ar
    28     9     1   ar
    29    12    10   am
    30    20    21    2
    31     1     2   ar
    32     3     4   ar
    33     5     6   ar
    34     7     8   ar
    35    10    11    2
    36    14    15   ar
    37    16    17   ar
    38    18    19   ar
    39    24    25    1
    40    12    13    1
@<TRIPOS>MOLECULE
MolPort-004-989-144 CSSS09880947379 MCULE-5344949372 PubChem-45163881
 36 40 0 0 0
SMALL
GASTEIGER

@<TRIPOS>ATOM
      1 C          10.2798   41.3896   11.5146 C.ar    1  UNL1        0.1514
      2 C          11.4121   41.0722   10.7582 C.ar    1  UNL1        0.0760
      3 C          11.1658   41.5343    9.4770 C.ar    1  UNL1        0.0505
      4 C          11.8734   41.4233    8.2838 C.ar    1  UNL1        0.0202
      5 C          11.2940   41.9709    7.1263 C.ar    1  UNL1        0.0642
      6 C          10.0201   42.5850    7.2113 C.ar    1  UNL1        0.1147
      7 C           9.9328   42.1260    9.5109 C.ar    1  UNL1        0.1453
      8 N           9.3521   42.6482    8.4011 N.ar    1  UNL1       -0.2254
      9 N           9.3826   42.0544   10.7371 N.ar    1  UNL1       -0.3040
     10 C          13.7795   40.1421   10.5304 C.2     1  UNL1        0.2495
     11 O          14.0974   40.9289    9.5978 O.2     1  UNL1       -0.2698
     12 N          12.5304   40.2992   11.2148 N.am    1  UNL1       -0.2790
     13 H          12.4309   39.8343   12.0769 H       1  UNL1        0.1552
     14 C          14.7212   39.0924   10.9568 C.ar    1  UNL1        0.0537
     15 C          14.2447   37.9006   11.5226 C.ar    1  UNL1        0.0045
     16 C          15.1372   36.9030   11.9263 C.ar    1  UNL1        0.0001
     17 C          16.5127   37.0893   11.7654 C.ar    1  UNL1        0.0000
     18 C          16.9961   38.2732   11.2013 C.ar    1  UNL1        0.0001
     19 C          16.1038   39.2712   10.7989 C.ar    1  UNL1        0.0045
     20 C          10.0777   41.0523   12.9408 C.2     1  UNL1        0.3587
     21 O          11.0743   40.8250   13.6804 O.2     1  UNL1       -0.2432
     22 C           8.5472   40.9958   14.8692 C.3     1  UNL1        0.2560
     23 O           8.7875   40.9888   13.4702 O.3     1  UNL1       -0.4403
     24 N          12.0070   41.8848    5.8847 N.pl3   1  UNL1       -0.3320
     25 H          11.5515   41.4336    5.1376 H       1  UNL1        0.1468
     26 C          13.3482   42.4057    5.6273 C.3     1  UNL1        0.0808
     27 C          14.2657   42.1839    6.8067 C.3     1  UNL1        0.0320
     28 C          15.4806   43.0478    6.5637 C.3     1  UNL1        0.0593
     29 C          13.3185   43.8905    5.3275 C.3     1  UNL1        0.0770
     30 S          14.9291   44.6007    5.7911 S.3     1  UNL1       -0.1385
     31 C           8.0476   42.5157   11.1023 C.3     1  UNL1        0.1371
     32 C           6.9957   41.5134   10.6513 C.3     1  UNL1        0.1378
     33 C           6.1681   42.1107    9.5428 C.3     1  UNL1        0.0341
     34 C           4.8154   41.5439    9.7999 C.3     1  UNL1        0.0346
     35 C           4.8286   41.3104   11.2889 C.3     1  UNL1        0.1422
     36 O           6.1577   41.1610   11.7273 O.3     1  UNL1       -0.3543
@<TRIPOS>BOND
     1    22    23    1
     2    20    23    1
     3    20     1    1
     4     2     3   ar
     5     2    12    1
     6     4     5   ar
     7     5    24    1
     8     6     8   ar
     9     7     9   ar
    10     7     3   ar
    11    31     9    1
    12    32    31    1
    13    32    33    1
    14    32    36    1
    15    33    34    1
    16    34    35    1
    17    35    36    1
    18    26    24    1
    19    26    27    1
    20    27    28    1
    21    28    30    1
    22    29    30    1
    23    29    26    1
    24    10    14    1
    25    15    16   ar
    26    17    18   ar
    27    19    14   ar
    28     9     1   ar
    29    12    10   am
    30    20    21    2
    31     1     2   ar
    32     3     4   ar
    33     5     6   ar
    34     7     8   ar
    35    10    11    2
    36    14    15   ar
    37    16    17   ar
    38    18    19   ar
    39    24    25    1
    40    12    13    1
@<TRIPOS>MOLECULE
MolPort-004-989-144 CSSS09880947379 MCULE-5344949372 PubChem-45163881
 36 40 0 0 0
SMALL
GASTEIGER

@<TRIPOS>ATOM
      1 C          13.0802   39.2694    9.1060 C.ar    1  UNL1        0.1514
      2 C          14.1698   38.3934    9.0865 C.ar    1  UNL1        0.0760
      3 C          15.3038   39.1813    9.1811 C.ar    1  UNL1        0.0505
      4 C          16.6625   38.8876    9.1148 C.ar    1  UNL1        0.0202
      5 C          17.5680   39.9600    9.1895 C.ar    1  UNL1        0.0642
      6 C          17.0710   41.2818    9.3040 C.ar    1  UNL1        0.1147
      7 C          14.8678   40.4742    9.2803 C.ar    1  UNL1        0.1453
      8 N          15.7270   41.5230    9.3404 N.ar    1  UNL1       -0.2254
      9 N          13.5245   40.5482    9.2432 N.ar    1  UNL1       -0.3040
     10 C          15.0398   36.0062    9.3430 C.2     1  UNL1        0.2495
     11 O          15.8609   36.3054   10.2520 O.2     1  UNL1       -0.2698
     12 N          14.0978   36.9774    8.8712 N.am    1  UNL1       -0.2790
     13 H          13.3315   36.6421    8.3520 H       1  UNL1        0.1552
     14 C          15.0106   34.6354    8.8039 C.ar    1  UNL1        0.0537
     15 C          16.0997   34.1384    8.0728 C.ar    1  UNL1        0.0045
     16 C          16.0738   32.8373    7.5619 C.ar    1  UNL1        0.0001
     17 C          14.9593   32.0230    7.7800 C.ar    1  UNL1        0.0000
     18 C          13.8704   32.5097    8.5086 C.ar    1  UNL1        0.0001
     19 C          13.8957   33.8111    9.0183 C.ar    1  UNL1        0.0045
     20 C          11.6591   38.8750    8.9897 C.2     1  UNL1        0.3587
     21 O          10.8768   39.0481    9.9643 O.2     1  UNL1       -0.2432
     22 C           9.8323   37.8999    7.6570 C.3     1  UNL1        0.2560
     23 O          11.1817   38.3155    7.8032 O.3     1  UNL1       -0.4403
     24 N          18.9751   39.6864    9.1389 N.pl3   1  UNL1       -0.3320
     25 H          19.5743   40.4518    8.9827 H       1  UNL1        0.1468
     26 C          19.6007   38.3751    9.2979 C.3     1  UNL1        0.0808
     27 C          19.0733   37.3823    8.2890 C.3     1  UNL1        0.0320
     28 C          19.5215   36.0204    8.7639 C.3     1  UNL1        0.0593
     29 C          19.3606   37.8103   10.6832 C.3     1  UNL1        0.0770
     30 S          19.4333   35.9943   10.5817 S.3     1  UNL1       -0.1385
     31 C          12.7364   41.7759    9.2479 C.3     1  UNL1        0.1371
     32 C          12.3677   42.1778    7.8278 C.3     1  UNL1        0.1378
     33 C          10.8688   42.2588    7.6964 C.3     1  UNL1        0.0341
     34 C          10.6345   41.7873    6.3036 C.3     1  UNL1        0.0346
     35 C          11.8080   40.8739    6.0583 C.3     1  UNL1        0.1422
     36 O          12.8713   41.2409    6.9043 O.3     1  UNL1       -0.3543
@<TRIPOS>BOND
     1    22    23    1
     2    20    23    1
     3    20     1    1
     4     2     3   ar
     5     2    12    1
     6     4     5   ar
     7     5    24    1
     8     6     8   ar
     9     7     9   ar
    10     7     3   ar
    11    31     9    1
    12    32    31    1
    13    32    33    1
    14    32    36    1
    15    33    34    1
    16    34    35    1
    17    35    36    1
    18    26    24    1
    19    26    27    1
    20    27    28    1
    21    28    30    1
    22    29    30    1
    23    29    26    1
    24    10    14    1
    25    15    16   ar
    26    17    18   ar
    27    19    14   ar
    28     9     1   ar
    29    12    10   am
    30    20    21    2
    31     1     2   ar
    32     3     4   ar
    33     5     6   ar
    34     7     8   ar
    35    10    11    2
    36    14    15   ar
    37    16    17   ar
    38    18    19   ar
    39    24    25    1
    40    12    13    1
@<TRIPOS>MOLECULE
MolPort-004-989-144 CSSS09880947379 MCULE-5344949372 PubChem-45163881
 36 40 0 0 0
SMALL
GASTEIGER

@<TRIPOS>ATOM
      1 C           1.2744   44.3851   15.2515 C.ar    1  UNL1        0.1514
      2 C           0.3130   43.7958   16.0781 C.ar    1  UNL1        0.0760
      3 C          -0.1316   42.6662   15.4134 C.ar    1  UNL1        0.0505
      4 C          -1.1374   41.7452   15.6908 C.ar    1  UNL1        0.0202
      5 C          -1.3692   40.7267   14.7505 C.ar    1  UNL1        0.0642
      6 C          -0.5983   40.6898   13.5624 C.ar    1  UNL1        0.1147
      7 C           0.5811   42.5992   14.2476 C.ar    1  UNL1        0.1453
      8 N           0.3622   41.6309   13.3224 N.ar    1  UNL1       -0.2254
      9 N           1.4422   43.6274   14.1338 N.ar    1  UNL1       -0.3040
     10 C          -0.7901   45.6433   17.4537 C.2     1  UNL1        0.2495
     11 O          -1.1959   46.2794   16.4435 O.2     1  UNL1       -0.2698
     12 N          -0.1889   44.3515   17.3013 N.am    1  UNL1       -0.2790
     13 H          -0.1136   43.7948   18.1098 H       1  UNL1        0.1552
     14 C          -0.9867   46.2051   18.8013 C.ar    1  UNL1        0.0537
     15 C           0.0993   46.3362   19.6795 C.ar    1  UNL1        0.0045
     16 C          -0.0858   46.8706   20.9582 C.ar    1  UNL1        0.0001
     17 C          -1.3578   47.2794   21.3672 C.ar    1  UNL1        0.0000
     18 C          -2.4452   47.1537   20.4981 C.ar    1  UNL1        0.0001
     19 C          -2.2605   46.6181   19.2201 C.ar    1  UNL1        0.0045
     20 C           1.9985   45.6430   15.5380 C.2     1  UNL1        0.3587
     21 O           2.3192   46.4132   14.5916 O.2     1  UNL1       -0.2432
     22 C           3.6647   45.9817   17.3193 C.3     1  UNL1        0.2560
     23 O           2.3240   45.9806   16.8528 O.3     1  UNL1       -0.4403
     24 N          -2.3896   39.7542   15.0164 N.pl3   1  UNL1       -0.3320
     25 H          -3.2122   40.0764   15.4509 H       1  UNL1        0.1468
     26 C          -2.3195   38.3287   14.7014 C.3     1  UNL1        0.0808
     27 C          -1.0103   37.7243   15.1515 C.3     1  UNL1        0.0320
     28 C          -0.9160   36.3750   14.4795 C.3     1  UNL1        0.0593
     29 C          -2.4646   38.0816   13.2136 C.3     1  UNL1        0.0770
     30 S          -1.6187   36.5219   12.8070 S.3     1  UNL1       -0.1385
     31 C           2.2967   43.9023   12.9837 C.3     1  UNL1        0.1371
     32 C           2.4889   42.6443   12.1500 C.3     1  UNL1        0.1378
     33 C           3.9199   42.1833   12.2498 C.3     1  UNL1        0.0341
     34 C           4.1840   41.6333   10.8915 C.3     1  UNL1        0.0346
     35 C           3.2412   42.4247   10.0217 C.3     1  UNL1        0.1422
     36 O           2.1673   42.8934   10.8014 O.3     1  UNL1       -0.3543
@<TRIPOS>BOND
     1    22    23    1
     2    20    23    1
     3    20     1    1
     4     2     3   ar
     5     2    12    1
     6     4     5   ar
     7     5    24    1
     8     6     8   ar
     9     7     9   ar
    10     7     3   ar
    11    31     9    1
    12    32    31    1
    13    32    33    1
    14    32    36    1
    15    33    34    1
    16    34    35    1
    17    35    36    1
    18    26    24    1
    19    26    27    1
    20    27    28    1
    21    28    30    1
    22    29    30    1
    23    29    26    1
    24    10    14    1
    25    15    16   ar
    26    17    18   ar
    27    19    14   ar
    28     9     1   ar
    29    12    10   am
    30    20    21    2
    31     1     2   ar
    32     3     4   ar
    33     5     6   ar
    34     7     8   ar
    35    10    11    2
    36    14    15   ar
    37    16    17   ar
    38    18    19   ar
    39    24    25    1
    40    12    13    1
@<TRIPOS>MOLECULE
MolPort-004-989-144 CSSS09880947379 MCULE-5344949372 PubChem-45163881
 36 40 0 0 0
SMALL
GASTEIGER

@<TRIPOS>ATOM
      1 C           8.2465   42.0302    6.7478 C.ar    1  UNL1        0.1514
      2 C           8.0267   42.1382    8.1244 C.ar    1  UNL1        0.0760
      3 C           9.2514   41.9220    8.7318 C.ar    1  UNL1        0.0505
      4 C           9.6344   41.8100   10.0651 C.ar    1  UNL1        0.0202
      5 C          10.9832   41.5222   10.3362 C.ar    1  UNL1        0.0642
      6 C          11.8839   41.3363    9.2585 C.ar    1  UNL1        0.1147
      7 C          10.1529   41.7234    7.7221 C.ar    1  UNL1        0.1453
      8 N          11.4558   41.4318    7.9649 N.ar    1  UNL1       -0.2254
      9 N           9.5654   41.7913    6.5132 N.ar    1  UNL1       -0.3040
     10 C           6.2334   41.5101    9.8307 C.2     1  UNL1        0.2495
     11 O           7.0056   40.7812   10.5106 O.2     1  UNL1       -0.2698
     12 N           6.7491   42.3034    8.7546 N.am    1  UNL1       -0.2790
     13 H           6.1741   43.0278    8.4172 H       1  UNL1        0.1552
     14 C           4.8045   41.5906   10.1805 C.ar    1  UNL1        0.0537
     15 C           3.8227   41.3224    9.2152 C.ar    1  UNL1        0.0045
     16 C           2.4664   41.3970    9.5462 C.ar    1  UNL1        0.0001
     17 C           2.0821   41.7386   10.8455 C.ar    1  UNL1        0.0000
     18 C           3.0538   42.0061   11.8140 C.ar    1  UNL1        0.0001
     19 C           4.4099   41.9328   11.4826 C.ar    1  UNL1        0.0045
     20 C           7.2085   42.1500    5.7005 C.2     1  UNL1        0.3587
     21 O           6.9045   43.2861    5.2438 O.2     1  UNL1       -0.2432
     22 C           6.2234   39.9219    6.0599 C.3     1  UNL1        0.2560
     23 O           6.5682   41.0088    5.2144 O.3     1  UNL1       -0.4403
     24 N          11.4103   41.4157   11.7014 N.pl3   1  UNL1       -0.3320
     25 H          12.3444   41.1470   11.8582 H       1  UNL1        0.1468
     26 C          10.5855   41.6695   12.8810 C.3     1  UNL1        0.0808
     27 C          10.9918   40.7923   14.0417 C.3     1  UNL1        0.0320
     28 C           9.8779   40.8940   15.0568 C.3     1  UNL1        0.0593
     29 C           9.1182   41.4220   12.5957 C.3     1  UNL1        0.0770
     30 S           8.2968   40.9826   14.1596 S.3     1  UNL1       -0.1385
     31 C          10.2191   41.5506    5.2313 C.3     1  UNL1        0.1371
     32 C          10.6376   40.0929    5.1120 C.3     1  UNL1        0.1378
     33 C          10.7968   39.7281    3.6588 C.3     1  UNL1        0.0341
     34 C          10.3361   38.3126    3.6224 C.3     1  UNL1        0.0346
     35 C           9.3622   38.2487    4.7708 C.3     1  UNL1        0.1422
     36 O           9.6742   39.2538    5.7054 O.3     1  UNL1       -0.3543
@<TRIPOS>BOND
     1    22    23    1
     2    20    23    1
     3    20     1    1
     4     2     3   ar
     5     2    12    1
     6     4     5   ar
     7     5    24    1
     8     6     8   ar
     9     7     9   ar
    10     7     3   ar
    11    31     9    1
    12    32    31    1
    13    32    33    1
    14    32    36    1
    15    33    34    1
    16    34    35    1
    17    35    36    1
    18    26    24    1
    19    26    27    1
    20    27    28    1
    21    28    30    1
    22    29    30    1
    23    29    26    1
    24    10    14    1
    25    15    16   ar
    26    17    18   ar
    27    19    14   ar
    28     9     1   ar
    29    12    10   am
    30    20    21    2
    31     1     2   ar
    32     3     4   ar
    33     5     6   ar
    34     7     8   ar
    35    10    11    2
    36    14    15   ar
    37    16    17   ar
    38    18    19   ar
    39    24    25    1
    40    12    13    1
@<TRIPOS>MOLECULE
MolPort-004-989-144 CSSS09880947379 MCULE-5344949372 PubChem-45163881
 36 40 0 0 0
SMALL
GASTEIGER

@<TRIPOS>ATOM
      1 C          15.2564   38.2210   10.7731 C.ar    1  UNL1        0.1514
      2 C          14.6431   39.3722   10.2694 C.ar    1  UNL1        0.0760
      3 C          15.6454   40.1172    9.6726 C.ar    1  UNL1        0.0505
      4 C          15.6607   41.3834    9.0953 C.ar    1  UNL1        0.0202
      5 C          16.8917   41.8740    8.6271 C.ar    1  UNL1        0.0642
      6 C          18.0576   41.0834    8.7792 C.ar    1  UNL1        0.1147
      7 C          16.7978   39.3927    9.8093 C.ar    1  UNL1        0.1453
      8 N          17.9973   39.8558    9.3752 N.ar    1  UNL1       -0.2254
      9 N          16.5821   38.2386   10.4672 N.ar    1  UNL1       -0.3040
     10 C          12.2472   39.7445    9.4676 C.2     1  UNL1        0.2495
     11 O          12.4169   39.1255    8.3823 O.2     1  UNL1       -0.2698
     12 N          13.2721   39.7423   10.4691 N.am    1  UNL1       -0.2790
     13 H          13.0113   40.0202   11.3769 H       1  UNL1        0.1552
     14 C          10.9674   40.4250    9.7309 C.ar    1  UNL1        0.0537
     15 C          10.6897   40.9435   11.0044 C.ar    1  UNL1        0.0045
     16 C           9.4761   41.5909   11.2552 C.ar    1  UNL1        0.0001
     17 C           8.5321   41.7259   10.2338 C.ar    1  UNL1        0.0000
     18 C           8.8012   41.2134    8.9616 C.ar    1  UNL1        0.0001
     19 C          10.0140   40.5650    8.7112 C.ar    1  UNL1        0.0045
     20 C          14.5762   37.1466   11.5292 C.2     1  UNL1        0.3587
     21 O          15.1287   36.6484   12.5482 O.2     1  UNL1       -0.2432
     22 C          13.1789   35.6806   10.1283 C.3     1  UNL1        0.2560
     23 O          13.3236   36.6862   11.1198 O.3     1  UNL1       -0.4403
     24 N          16.9356   43.1699    8.0138 N.pl3   1  UNL1       -0.3320
     25 H          17.7673   43.6862    8.1181 H       1  UNL1        0.1468
     26 C          15.8583   43.7940    7.2482 C.3     1  UNL1        0.0808
     27 C          14.6647   42.8769    7.1204 C.3     1  UNL1        0.0320
     28 C          13.7857   43.4763    6.0484 C.3     1  UNL1        0.0593
     29 C          16.3145   44.1690    5.8529 C.3     1  UNL1        0.0770
     30 S          14.8603   44.1784    4.7580 S.3     1  UNL1       -0.1385
     31 C          17.6039   37.2701   10.8501 C.3     1  UNL1        0.1371
     32 C          18.1161   36.5245    9.6270 C.3     1  UNL1        0.1378
     33 C          16.9795   35.7837    8.9715 C.3     1  UNL1        0.0341
     34 C          17.6390   34.5471    8.4687 C.3     1  UNL1        0.0346
     35 C          18.7871   34.3670    9.4284 C.3     1  UNL1        0.1422
     36 O          19.1242   35.6113    9.9933 O.3     1  UNL1       -0.3543
@<TRIPOS>BOND
     1    22    23    1
     2    20    23    1
     3    20     1    1
     4     2     3   ar
     5     2    12    1
     6     4     5   ar
     7     5    24    1
     8     6     8   ar
     9     7     9   ar
    10     7     3   ar
    11    31     9    1
    12    32    31    1
    13    32    33    1
    14    32    36    1
    15    33    34    1
    16    34    35    1
    17    35    36    1
    18    26    24    1
    19    26    27    1
    20    27    28    1
    21    28    30    1
    22    29    30    1
    23    29    26    1
    24    10    14    1
    25    15    16   ar
    26    17    18   ar
    27    19    14   ar
    28     9     1   ar
    29    12    10   am
    30    20    21    2
    31     1     2   ar
    32     3     4   ar
    33     5     6   ar
    34     7     8   ar
    35    10    11    2
    36    14    15   ar
    37    16    17   ar
    38    18    19   ar
    39    24    25    1
    40    12    13    1
@<TRIPOS>MOLECULE
MolPort-004-989-144 CSSS09880947379 MCULE-5344949372 PubChem-45163881
 36 40 0 0 0
SMALL
GASTEIGER

@<TRIPOS>ATOM
      1 C           8.1042   41.4594   10.5713 C.ar    1  UNL1        0.1514
      2 C           9.3248   41.0747   10.0085 C.ar    1  UNL1        0.0760
      3 C           9.3456   41.6005    8.7283 C.ar    1  UNL1        0.0505
      4 C          10.2429   41.4724    7.6722 C.ar    1  UNL1        0.0202
      5 C           9.9214   42.1070    6.4601 C.ar    1  UNL1        0.0642
      6 C           8.7034   42.8227    6.3526 C.ar    1  UNL1        0.1147
      7 C           8.1751   42.2922    8.5766 C.ar    1  UNL1        0.1453
      8 N           7.8420   42.9001    7.4099 N.ar    1  UNL1       -0.2254
      9 N           7.4125   42.2242    9.6835 N.ar    1  UNL1       -0.3040
     10 C          11.7072   40.3082   10.5171 C.2     1  UNL1        0.2495
     11 O          12.2348   41.3849   10.1267 O.2     1  UNL1       -0.2698
     12 N          10.2821   40.1948   10.6137 N.am    1  UNL1       -0.2790
     13 H           9.9278   39.4447   11.1439 H       1  UNL1        0.1552
     14 C          12.5613   39.1811   10.9302 C.ar    1  UNL1        0.0537
     15 C          13.7257   39.4115   11.6777 C.ar    1  UNL1        0.0045
     16 C          14.5362   38.3426   12.0717 C.ar    1  UNL1        0.0001
     17 C          14.1873   37.0354   11.7224 C.ar    1  UNL1        0.0000
     18 C          13.0281   36.7967   10.9789 C.ar    1  UNL1        0.0001
     19 C          12.2184   37.8655   10.5839 C.ar    1  UNL1        0.0045
     20 C           7.6273   41.0904   11.9223 C.2     1  UNL1        0.3587
     21 O           6.4201   41.2797   12.2362 O.2     1  UNL1       -0.2432
     22 C           9.0988   41.2988   13.8858 C.3     1  UNL1        0.2560
     23 O           8.5091   40.5302   12.8482 O.3     1  UNL1       -0.4403
     24 N          10.8344   42.0049    5.3585 N.pl3   1  UNL1       -0.3320
     25 H          10.4428   41.9039    4.4609 H       1  UNL1        0.1468
     26 C          12.2929   42.0370    5.4469 C.3     1  UNL1        0.0808
     27 C          12.7835   41.4446    6.7471 C.3     1  UNL1        0.0320
     28 C          14.2358   41.8409    6.8692 C.3     1  UNL1        0.0593
     29 C          12.8238   43.4524    5.3453 C.3     1  UNL1        0.0770
     30 S          14.4223   43.5282    6.2127 S.3     1  UNL1       -0.1385
     31 C           6.0732   42.7829    9.8335 C.3     1  UNL1        0.1371
     32 C           5.0420   41.8788    9.1752 C.3     1  UNL1        0.1378
     33 C           3.6974   42.5589    9.1750 C.3     1  UNL1        0.0341
     34 C           2.7539   41.4229    9.3652 C.3     1  UNL1        0.0346
     35 C           3.5862   40.4208   10.1234 C.3     1  UNL1        0.1422
     36 O           4.9498   40.6535    9.8641 O.3     1  UNL1       -0.3543
@<TRIPOS>BOND
     1    22    23    1
     2    20    23    1
     3    20     1    1
     4     2     3   ar
     5     2    12    1
     6     4     5   ar
     7     5    24    1
     8     6     8   ar
     9     7     9   ar
    10     7     3   ar
    11    31     9    1
    12    32    31    1
    13    32    33    1
    14    32    36    1
    15    33    34    1
    16    34    35    1
    17    35    36    1
    18    26    24    1
    19    26    27    1
    20    27    28    1
    21    28    30    1
    22    29    30    1
    23    29    26    1
    24    10    14    1
    25    15    16   ar
    26    17    18   ar
    27    19    14   ar
    28     9     1   ar
    29    12    10   am
    30    20    21    2
    31     1     2   ar
    32     3     4   ar
    33     5     6   ar
    34     7     8   ar
    35    10    11    2
    36    14    15   ar
    37    16    17   ar
    38    18    19   ar
    39    24    25    1
    40    12    13    1
@<TRIPOS>MOLECULE
MolPort-004-989-144 CSSS09880947379 MCULE-5344949372 PubChem-45163881
 36 40 0 0 0
SMALL
GASTEIGER

@<TRIPOS>ATOM
      1 C           9.3122   40.8791    7.2458 C.ar    1  UNL1        0.1514
      2 C          10.1208   41.1450    8.3551 C.ar    1  UNL1        0.0760
      3 C          11.3601   41.5056    7.8553 C.ar    1  UNL1        0.0505
      4 C          12.5780   41.7838    8.4686 C.ar    1  UNL1        0.0202
      5 C          13.6785   42.0638    7.6404 C.ar    1  UNL1        0.0642
      6 C          13.5154   42.0298    6.2334 C.ar    1  UNL1        0.1147
      7 C          11.2506   41.4725    6.4920 C.ar    1  UNL1        0.1453
      8 N          12.3052   41.7272    5.6768 N.ar    1  UNL1       -0.2254
      9 N          10.0167   41.1016    6.1031 N.ar    1  UNL1       -0.3040
     10 C           9.5416   41.9696   10.7017 C.2     1  UNL1        0.2495
     11 O           9.3792   43.1666   10.3403 O.2     1  UNL1       -0.2698
     12 N           9.7501   40.9415    9.7254 N.am    1  UNL1       -0.2790
     13 H           9.6278   40.0109   10.0225 H       1  UNL1        0.1552
     14 C           9.4595   41.6175   12.1299 C.ar    1  UNL1        0.0537
     15 C           8.2296   41.6681   12.8024 C.ar    1  UNL1        0.0045
     16 C           8.1501   41.3328   14.1574 C.ar    1  UNL1        0.0001
     17 C           9.2998   40.9427   14.8492 C.ar    1  UNL1        0.0000
     18 C          10.5292   40.8882   14.1866 C.ar    1  UNL1        0.0001
     19 C          10.6089   41.2247   12.8321 C.ar    1  UNL1        0.0045
     20 C           7.9069   40.4197    7.2980 C.2     1  UNL1        0.3587
     21 O           7.6391   39.1967    7.1414 O.2     1  UNL1       -0.2432
     22 C           6.2418   41.4559    8.7872 C.3     1  UNL1        0.2560
     23 O           6.8779   41.3355    7.5239 O.3     1  UNL1       -0.4403
     24 N          14.9432   42.3688    8.2445 N.pl3   1  UNL1       -0.3320
     25 H          14.9605   42.4591    9.2247 H       1  UNL1        0.1468
     26 C          16.2086   42.5578    7.5379 C.3     1  UNL1        0.0808
     27 C          17.3026   43.0189    8.4719 C.3     1  UNL1        0.0320
     28 C          18.4323   43.5003    7.5925 C.3     1  UNL1        0.0593
     29 C          16.0765   43.5801    6.4275 C.3     1  UNL1        0.0770
     30 S          17.7104   44.3301    6.1422 S.3     1  UNL1       -0.1385
     31 C           9.5826   40.8905    4.7264 C.3     1  UNL1        0.1371
     32 C           9.3313   39.4126    4.4677 C.3     1  UNL1        0.1378
     33 C          10.6248   38.6493    4.5884 C.3     1  UNL1        0.0341
     34 C          10.4773   37.5864    3.5561 C.3     1  UNL1        0.0346
     35 C           9.5560   38.2248    2.5486 C.3     1  UNL1        0.1422
     36 O           8.7908   39.2227    3.1808 O.3     1  UNL1       -0.3543
@<TRIPOS>BOND
     1    22    23    1
     2    20    23    1
     3    20     1    1
     4     2     3   ar
     5     2    12    1
     6     4     5   ar
     7     5    24    1
     8     6     8   ar
     9     7     9   ar
    10     7     3   ar
    11    31     9    1
    12    32    31    1
    13    32    33    1
    14    32    36    1
    15    33    34    1
    16    34    35    1
    17    35    36    1
    18    26    24    1
    19    26    27    1
    20    27    28    1
    21    28    30    1
    22    29    30    1
    23    29    26    1
    24    10    14    1
    25    15    16   ar
    26    17    18   ar
    27    19    14   ar
    28     9     1   ar
    29    12    10   am
    30    20    21    2
    31     1     2   ar
    32     3     4   ar
    33     5     6   ar
    34     7     8   ar
    35    10    11    2
    36    14    15   ar
    37    16    17   ar
    38    18    19   ar
    39    24    25    1
    40    12    13    1
