@<TRIPOS>MOLECULE
Molport-053-317-150 PubChem-110111773
 28 31 0 0 0
SMALL
GASTEIGER

@<TRIPOS>ATOM
      1 C          13.8059   38.1662   11.1091 C.3     1  UNL1        0.0724
      2 C          13.3011   39.5969   11.3433 C.3     1  UNL1        0.0177
      3 C          13.0041   40.3335   10.0338 C.3     1  UNL1        0.0072
      4 C          12.4679   39.3709    8.9749 C.3     1  UNL1        0.0385
      5 C          13.3998   38.1651    8.7549 C.3     1  UNL1        0.0767
      6 N          14.4300   38.0388    9.7932 N.3     1  UNL1       -0.2674
      7 C          12.1600   40.0666    7.6899 C.ar    1  UNL1       -0.0168
      8 C          12.7595   41.2993    7.4261 C.ar    1  UNL1        0.0302
      9 C          12.4836   41.9596    6.2258 C.ar    1  UNL1        0.1329
     10 C          11.0329   40.1950    5.5599 C.ar    1  UNL1        0.1000
     11 C          11.2863   39.5074    6.7482 C.ar    1  UNL1        0.0165
     12 N          11.6286   41.3956    5.3265 N.ar    1  UNL1       -0.2291
     13 N          13.0965   43.2298    5.9762 N.pl3   1  UNL1       -0.2821
     14 H          12.5246   43.9303    5.5870 H       1  UNL1        0.1551
     15 C          14.4608   43.5801    6.2377 C.ar    1  UNL1        0.1526
     16 C          16.5630   43.1180    7.2412 C.ar    1  UNL1        0.1210
     17 C          17.0799   44.2984    6.7017 C.ar    1  UNL1        0.1196
     18 C          14.9805   44.7619    5.7018 C.ar    1  UNL1        0.1332
     19 N          15.2667   42.7857    6.9983 N.ar    1  UNL1       -0.2258
     20 N          16.2771   45.0951    5.9450 N.ar    1  UNL1       -0.2378
     21 C          14.9365   36.6822    9.7099 C.3     1  UNL1        0.1183
     22 C          16.1802   34.6011    7.9916 C.3     1  UNL1        0.0323
     23 C          16.9830   35.7073    8.5880 C.ar    1  UNL1       -0.0069
     24 C          16.3975   36.6939    9.4009 C.ar    1  UNL1        0.0712
     25 C          18.5079   37.7587    9.6740 C.ar    1  UNL1        0.0985
     26 C          19.1261   36.7895    8.8809 C.ar    1  UNL1        0.0203
     27 C          18.3556   35.7622    8.3372 C.ar    1  UNL1       -0.0015
     28 N          17.1715   37.6922    9.9134 N.ar    1  UNL1       -0.2471
@<TRIPOS>BOND
     1    22    23    1
     2    24    28   ar
     3    25    26   ar
     4    27    23   ar
     5    21    24    1
     6    21     6    1
     7     1     6    1
     8     1     2    1
     9     2     3    1
    10     3     4    1
    11     4     5    1
    12     4     7    1
    13     5     6    1
    14     8     9   ar
    15     9    13    1
    16    10    12   ar
    17    11     7   ar
    18    16    19   ar
    19    17    20   ar
    20    18    15   ar
    21    13    15    1
    22    23    24   ar
    23    25    28   ar
    24    26    27   ar
    25     7     8   ar
    26     9    12   ar
    27    10    11   ar
    28    15    19   ar
    29    16    17   ar
    30    18    20   ar
    31    13    14    1
@<TRIPOS>MOLECULE
Molport-053-317-150 PubChem-110111773
 28 31 0 0 0
SMALL
GASTEIGER

@<TRIPOS>ATOM
      1 C          10.6021   39.3910    9.2619 C.3     1  UNL1        0.0724
      2 C          11.4180   38.1155    9.5145 C.3     1  UNL1        0.0177
      3 C          12.9263   38.3539    9.3977 C.3     1  UNL1        0.0072
      4 C          13.2984   39.7516    9.8913 C.3     1  UNL1        0.0385
      5 C          12.4881   40.8555    9.1873 C.3     1  UNL1        0.0767
      6 N          11.3458   40.3330    8.4273 N.3     1  UNL1       -0.2674
      7 C          14.7669   40.0063    9.7979 C.ar    1  UNL1       -0.0168
      8 C          15.2267   41.0189    8.9542 C.ar    1  UNL1        0.0302
      9 C          16.5980   41.2709    8.8602 C.ar    1  UNL1        0.1329
     10 C          17.0498   39.5314   10.4195 C.ar    1  UNL1        0.1000
     11 C          15.6869   39.2528   10.5385 C.ar    1  UNL1        0.0165
     12 N          17.4732   40.5228    9.5897 N.ar    1  UNL1       -0.2291
     13 N          17.0545   42.3045    7.9799 N.pl3   1  UNL1       -0.2821
     14 H          18.0264   42.4552    7.9378 H       1  UNL1        0.1551
     15 C          16.2342   43.1405    7.1549 C.ar    1  UNL1        0.1526
     16 C          14.1804   43.5838    6.0480 C.ar    1  UNL1        0.1210
     17 C          14.6980   44.7906    5.5712 C.ar    1  UNL1        0.1196
     18 C          16.7499   44.3473    6.6738 C.ar    1  UNL1        0.1332
     19 N          14.9588   42.7862    6.8275 N.ar    1  UNL1       -0.2258
     20 N          15.9717   45.1453    5.8934 N.ar    1  UNL1       -0.2378
     21 C          10.4599   41.4563    8.1884 C.3     1  UNL1        0.1183
     22 C           7.8482   41.9067    9.5325 C.3     1  UNL1        0.0323
     23 C           7.9440   41.1987    8.2235 C.ar    1  UNL1       -0.0069
     24 C           9.1781   40.9845    7.5845 C.ar    1  UNL1        0.0712
     25 C           8.0833   39.8844    5.7809 C.ar    1  UNL1        0.0985
     26 C           6.8408   40.0686    6.3917 C.ar    1  UNL1        0.0203
     27 C           6.7764   40.7300    7.6176 C.ar    1  UNL1       -0.0015
     28 N           9.2128   40.3425    6.3825 N.ar    1  UNL1       -0.2471
@<TRIPOS>BOND
     1    22    23    1
     2    24    28   ar
     3    25    26   ar
     4    27    23   ar
     5    21    24    1
     6    21     6    1
     7     1     6    1
     8     1     2    1
     9     2     3    1
    10     3     4    1
    11     4     5    1
    12     4     7    1
    13     5     6    1
    14     8     9   ar
    15     9    13    1
    16    10    12   ar
    17    11     7   ar
    18    16    19   ar
    19    17    20   ar
    20    18    15   ar
    21    13    15    1
    22    23    24   ar
    23    25    28   ar
    24    26    27   ar
    25     7     8   ar
    26     9    12   ar
    27    10    11   ar
    28    15    19   ar
    29    16    17   ar
    30    18    20   ar
    31    13    14    1
@<TRIPOS>MOLECULE
Molport-053-317-150 PubChem-110111773
 28 31 0 0 0
SMALL
GASTEIGER

@<TRIPOS>ATOM
      1 C           6.5402   41.1010    7.8893 C.3     1  UNL1        0.0724
      2 C           7.2995   40.2515    6.8605 C.3     1  UNL1        0.0177
      3 C           8.8175   40.4266    6.9644 C.3     1  UNL1        0.0072
      4 C           9.2443   40.6455    8.4154 C.3     1  UNL1        0.0385
      5 C           8.4868   41.8105    9.0786 C.3     1  UNL1        0.0767
      6 N           7.3296   42.2622    8.2962 N.3     1  UNL1       -0.2674
      7 C          10.7229   40.8088    8.5459 C.ar    1  UNL1       -0.0168
      8 C          11.4511   41.2842    7.4541 C.ar    1  UNL1        0.0302
      9 C          12.8349   41.4459    7.5634 C.ar    1  UNL1        0.1329
     10 C          12.7727   40.6701    9.8119 C.ar    1  UNL1        0.1000
     11 C          11.3893   40.4970    9.7382 C.ar    1  UNL1        0.0165
     12 N          13.4603   41.1338    8.7336 N.ar    1  UNL1       -0.2291
     13 N          13.5693   41.9221    6.4296 N.pl3   1  UNL1       -0.2821
     14 H          13.3449   41.5261    5.5566 H       1  UNL1        0.1551
     15 C          14.5985   42.9185    6.4424 C.ar    1  UNL1        0.1526
     16 C          16.7053   43.7119    7.1985 C.ar    1  UNL1        0.1210
     17 C          16.5500   44.8633    6.4228 C.ar    1  UNL1        0.1196
     18 C          14.4450   44.0732    5.6697 C.ar    1  UNL1        0.1332
     19 N          15.7274   42.7666    7.1918 N.ar    1  UNL1       -0.2258
     20 N          15.4228   45.0194    5.6765 N.ar    1  UNL1       -0.2378
     21 C           6.4938   43.0293    9.2000 C.3     1  UNL1        0.1183
     22 C           6.7272   41.3846   11.6639 C.3     1  UNL1        0.0323
     23 C           5.4731   41.4140   10.8573 C.ar    1  UNL1       -0.0069
     24 C           5.3592   42.1917    9.6914 C.ar    1  UNL1        0.0712
     25 C           3.1184   41.4519    9.3853 C.ar    1  UNL1        0.0985
     26 C           3.1989   40.6582   10.5317 C.ar    1  UNL1        0.0203
     27 C           4.3832   40.6437   11.2677 C.ar    1  UNL1       -0.0015
     28 N           4.1876   42.1948    8.9945 N.ar    1  UNL1       -0.2471
@<TRIPOS>BOND
     1    22    23    1
     2    24    28   ar
     3    25    26   ar
     4    27    23   ar
     5    21    24    1
     6    21     6    1
     7     1     6    1
     8     1     2    1
     9     2     3    1
    10     3     4    1
    11     4     5    1
    12     4     7    1
    13     5     6    1
    14     8     9   ar
    15     9    13    1
    16    10    12   ar
    17    11     7   ar
    18    16    19   ar
    19    17    20   ar
    20    18    15   ar
    21    13    15    1
    22    23    24   ar
    23    25    28   ar
    24    26    27   ar
    25     7     8   ar
    26     9    12   ar
    27    10    11   ar
    28    15    19   ar
    29    16    17   ar
    30    18    20   ar
    31    13    14    1
@<TRIPOS>MOLECULE
Molport-053-317-150 PubChem-110111773
 28 31 0 0 0
SMALL
GASTEIGER

@<TRIPOS>ATOM
      1 C           7.5652   42.1180   10.6508 C.3     1  UNL1        0.0724
      2 C           8.2998   41.6573   11.9176 C.3     1  UNL1        0.0177
      3 C           9.6715   41.0497   11.6094 C.3     1  UNL1        0.0072
      4 C          10.3229   41.7481   10.4163 C.3     1  UNL1        0.0385
      5 C           9.4105   41.7606    9.1761 C.3     1  UNL1        0.0767
      6 N           8.0260   41.3766    9.4781 N.3     1  UNL1       -0.2674
      7 C          11.6678   41.1809   10.1009 C.ar    1  UNL1       -0.0168
      8 C          12.2665   41.4954    8.8798 C.ar    1  UNL1        0.0302
      9 C          13.5267   40.9750    8.5732 C.ar    1  UNL1        0.1329
     10 C          13.5948   39.8419   10.6644 C.ar    1  UNL1        0.1000
     11 C          12.3373   40.3446   11.0038 C.ar    1  UNL1        0.0165
     12 N          14.1568   40.1621    9.4676 N.ar    1  UNL1       -0.2291
     13 N          14.1214   41.2966    7.3105 N.pl3   1  UNL1       -0.2821
     14 H          14.2755   40.5490    6.6887 H       1  UNL1        0.1551
     15 C          14.5138   42.6001    6.8644 C.ar    1  UNL1        0.1526
     16 C          16.0709   44.3927    6.8179 C.ar    1  UNL1        0.1210
     17 C          15.2222   45.1078    5.9695 C.ar    1  UNL1        0.1196
     18 C          13.6657   43.3196    6.0177 C.ar    1  UNL1        0.1332
     19 N          15.6984   43.1569    7.2466 N.ar    1  UNL1       -0.2258
     20 N          14.0377   44.5562    5.5890 N.ar    1  UNL1       -0.2378
     21 C           7.2183   41.8316    8.3626 C.3     1  UNL1        0.1183
     22 C           5.8342   44.4538    8.1652 C.3     1  UNL1        0.0323
     23 C           5.1448   43.2417    8.6941 C.ar    1  UNL1       -0.0069
     24 C           5.7967   41.9994    8.7882 C.ar    1  UNL1        0.0712
     25 C           3.8263   41.0030    9.6751 C.ar    1  UNL1        0.0985
     26 C           3.1503   42.2233    9.6073 C.ar    1  UNL1        0.0203
     27 C           3.8167   43.3440    9.1130 C.ar    1  UNL1       -0.0015
     28 N           5.1201   40.9173    9.2672 N.ar    1  UNL1       -0.2471
@<TRIPOS>BOND
     1    22    23    1
     2    24    28   ar
     3    25    26   ar
     4    27    23   ar
     5    21    24    1
     6    21     6    1
     7     1     6    1
     8     1     2    1
     9     2     3    1
    10     3     4    1
    11     4     5    1
    12     4     7    1
    13     5     6    1
    14     8     9   ar
    15     9    13    1
    16    10    12   ar
    17    11     7   ar
    18    16    19   ar
    19    17    20   ar
    20    18    15   ar
    21    13    15    1
    22    23    24   ar
    23    25    28   ar
    24    26    27   ar
    25     7     8   ar
    26     9    12   ar
    27    10    11   ar
    28    15    19   ar
    29    16    17   ar
    30    18    20   ar
    31    13    14    1
@<TRIPOS>MOLECULE
Molport-053-317-150 PubChem-110111773
 28 31 0 0 0
SMALL
GASTEIGER

@<TRIPOS>ATOM
      1 C           5.8478   41.0426    8.0813 C.3     1  UNL1        0.0724
      2 C           6.0458   40.1476    6.8499 C.3     1  UNL1        0.0177
      3 C           7.4258   40.3296    6.2111 C.3     1  UNL1        0.0072
      4 C           8.4863   40.6158    7.2735 C.3     1  UNL1        0.0385
      5 C           8.1087   41.8091    8.1704 C.3     1  UNL1        0.0767
      6 N           6.7085   42.2225    8.0163 N.3     1  UNL1       -0.2674
      7 C           9.8447   40.7872    6.6773 C.ar    1  UNL1       -0.0168
      8 C          10.7752   41.5956    7.3324 C.ar    1  UNL1        0.0302
      9 C          12.0515   41.7616    6.7881 C.ar    1  UNL1        0.1329
     10 C          11.4851   40.3425    4.9641 C.ar    1  UNL1        0.1000
     11 C          10.2014   40.1538    5.4797 C.ar    1  UNL1        0.0165
     12 N          12.3738   41.1361    5.6207 N.ar    1  UNL1       -0.2291
     13 N          12.9902   42.6050    7.4656 N.pl3   1  UNL1       -0.2821
     14 H          12.8311   42.7672    8.4235 H       1  UNL1        0.1551
     15 C          14.1381   43.2355    6.8850 C.ar    1  UNL1        0.1526
     16 C          16.4843   43.5934    6.7994 C.ar    1  UNL1        0.1210
     17 C          16.3114   44.4692    5.7249 C.ar    1  UNL1        0.1196
     18 C          13.9685   44.1146    5.8115 C.ar    1  UNL1        0.1332
     19 N          15.3956   42.9973    7.3555 N.ar    1  UNL1       -0.2258
     20 N          15.0573   44.7116    5.2554 N.ar    1  UNL1       -0.2378
     21 C           6.3857   43.0293    9.1777 C.3     1  UNL1        0.1183
     22 C           3.5400   43.8053    8.8166 C.3     1  UNL1        0.0323
     23 C           3.9480   42.7556    9.7942 C.ar    1  UNL1       -0.0069
     24 C           5.2935   42.3856    9.9670 C.ar    1  UNL1        0.0712
     25 C           4.6700   40.7892   11.6176 C.ar    1  UNL1        0.0985
     26 C           3.3247   41.1388   11.4815 C.ar    1  UNL1        0.0203
     27 C           2.9675   42.1261   10.5638 C.ar    1  UNL1       -0.0015
     28 N           5.6153   41.4117   10.8649 N.ar    1  UNL1       -0.2471
@<TRIPOS>BOND
     1    22    23    1
     2    24    28   ar
     3    25    26   ar
     4    27    23   ar
     5    21    24    1
     6    21     6    1
     7     1     6    1
     8     1     2    1
     9     2     3    1
    10     3     4    1
    11     4     5    1
    12     4     7    1
    13     5     6    1
    14     8     9   ar
    15     9    13    1
    16    10    12   ar
    17    11     7   ar
    18    16    19   ar
    19    17    20   ar
    20    18    15   ar
    21    13    15    1
    22    23    24   ar
    23    25    28   ar
    24    26    27   ar
    25     7     8   ar
    26     9    12   ar
    27    10    11   ar
    28    15    19   ar
    29    16    17   ar
    30    18    20   ar
    31    13    14    1
@<TRIPOS>MOLECULE
Molport-053-317-150 PubChem-110111773
 28 31 0 0 0
SMALL
GASTEIGER

@<TRIPOS>ATOM
      1 C          10.7099   38.6016    8.7350 C.3     1  UNL1        0.0724
      2 C          11.1976   37.4504    9.6258 C.3     1  UNL1        0.0177
      3 C          12.6852   37.5683    9.9707 C.3     1  UNL1        0.0072
      4 C          13.0980   39.0325   10.1163 C.3     1  UNL1        0.0385
      5 C          12.7292   39.8702    8.8781 C.3     1  UNL1        0.0767
      6 N          11.8136   39.1738    7.9659 N.3     1  UNL1       -0.2674
      7 C          14.5434   39.1753   10.4633 C.ar    1  UNL1       -0.0168
      8 C          15.3595   39.9674    9.6540 C.ar    1  UNL1        0.0302
      9 C          16.7131   40.1132    9.9692 C.ar    1  UNL1        0.1329
     10 C          16.4491   38.7009   11.8658 C.ar    1  UNL1        0.1000
     11 C          15.0926   38.5336   11.5811 C.ar    1  UNL1        0.0165
     12 N          17.2240   39.4772   11.0611 N.ar    1  UNL1       -0.2291
     13 N          17.5399   40.9188    9.1212 N.pl3   1  UNL1       -0.2821
     14 H          18.4826   40.6489    9.0333 H       1  UNL1        0.1551
     15 C          17.1285   42.0790    8.3884 C.ar    1  UNL1        0.1526
     16 C          17.5874   44.2208    7.4709 C.ar    1  UNL1        0.1210
     17 C          16.2867   44.2826    6.9649 C.ar    1  UNL1        0.1196
     18 C          15.8268   42.1454    7.8832 C.ar    1  UNL1        0.1332
     19 N          17.9788   43.1224    8.1710 N.ar    1  UNL1       -0.2258
     20 N          15.4346   43.2443    7.1833 N.ar    1  UNL1       -0.2378
     21 C          11.2322   40.1895    7.1090 C.3     1  UNL1        0.1183
     22 C           8.8217   39.2130    5.6716 C.3     1  UNL1        0.0323
     23 C           8.7154   40.0668    6.8897 C.ar    1  UNL1       -0.0069
     24 C           9.8540   40.5300    7.5725 C.ar    1  UNL1        0.0712
     25 C           8.4792   41.6474    9.1610 C.ar    1  UNL1        0.0985
     26 C           7.3260   41.2156    8.5020 C.ar    1  UNL1        0.0203
     27 C           7.4503   40.4213    7.3626 C.ar    1  UNL1       -0.0015
     28 N           9.7051   41.2982    8.6888 N.ar    1  UNL1       -0.2471
@<TRIPOS>BOND
     1    22    23    1
     2    24    28   ar
     3    25    26   ar
     4    27    23   ar
     5    21    24    1
     6    21     6    1
     7     1     6    1
     8     1     2    1
     9     2     3    1
    10     3     4    1
    11     4     5    1
    12     4     7    1
    13     5     6    1
    14     8     9   ar
    15     9    13    1
    16    10    12   ar
    17    11     7   ar
    18    16    19   ar
    19    17    20   ar
    20    18    15   ar
    21    13    15    1
    22    23    24   ar
    23    25    28   ar
    24    26    27   ar
    25     7     8   ar
    26     9    12   ar
    27    10    11   ar
    28    15    19   ar
    29    16    17   ar
    30    18    20   ar
    31    13    14    1
@<TRIPOS>MOLECULE
Molport-053-317-150 PubChem-110111773
 28 31 0 0 0
SMALL
GASTEIGER

@<TRIPOS>ATOM
      1 C           9.5155   40.1164    7.7887 C.3     1  UNL1        0.0724
      2 C          10.4699   39.7939    6.6304 C.3     1  UNL1        0.0177
      3 C          11.9402   39.9852    7.0142 C.3     1  UNL1        0.0072
      4 C          12.1747   39.6182    8.4791 C.3     1  UNL1        0.0385
      5 C          11.2313   40.3768    9.4305 C.3     1  UNL1        0.0767
      6 N          10.1302   41.0501    8.7307 N.3     1  UNL1       -0.2674
      7 C          13.6043   39.7860    8.8768 C.ar    1  UNL1       -0.0168
      8 C          14.3151   40.8891    8.4009 C.ar    1  UNL1        0.0302
      9 C          15.6524   41.0609    8.7683 C.ar    1  UNL1        0.1329
     10 C          15.5792   39.0651   10.0617 C.ar    1  UNL1        0.1000
     11 C          14.2419   38.8625    9.7155 C.ar    1  UNL1        0.0165
     12 N          16.2507   40.1475    9.5841 N.ar    1  UNL1       -0.2291
     13 N          16.3714   42.1909    8.2607 N.pl3   1  UNL1       -0.2821
     14 H          17.2892   42.3194    8.5929 H       1  UNL1        0.1551
     15 C          15.8849   43.1525    7.3167 C.ar    1  UNL1        0.1526
     16 C          14.1923   43.9448    5.8514 C.ar    1  UNL1        0.1210
     17 C          14.9962   45.0361    5.5132 C.ar    1  UNL1        0.1196
     18 C          16.6878   44.2442    6.9739 C.ar    1  UNL1        0.1332
     19 N          14.6539   43.0280    6.7437 N.ar    1  UNL1       -0.2258
     20 N          16.2267   45.1612    6.0807 N.ar    1  UNL1       -0.2378
     21 C           9.1228   41.3442    9.7320 C.3     1  UNL1        0.1183
     22 C           9.8927   44.1595   10.2899 C.3     1  UNL1        0.0323
     23 C           8.6398   43.8207    9.5555 C.ar    1  UNL1       -0.0069
     24 C           8.2729   42.4896    9.2894 C.ar    1  UNL1        0.0712
     25 C           6.3034   43.2273    8.1764 C.ar    1  UNL1        0.0985
     26 C           6.6295   44.5609    8.4329 C.ar    1  UNL1        0.0203
     27 C           7.8043   44.8533    9.1249 C.ar    1  UNL1       -0.0015
     28 N           7.1234   42.2310    8.6037 N.ar    1  UNL1       -0.2471
@<TRIPOS>BOND
     1    22    23    1
     2    24    28   ar
     3    25    26   ar
     4    27    23   ar
     5    21    24    1
     6    21     6    1
     7     1     6    1
     8     1     2    1
     9     2     3    1
    10     3     4    1
    11     4     5    1
    12     4     7    1
    13     5     6    1
    14     8     9   ar
    15     9    13    1
    16    10    12   ar
    17    11     7   ar
    18    16    19   ar
    19    17    20   ar
    20    18    15   ar
    21    13    15    1
    22    23    24   ar
    23    25    28   ar
    24    26    27   ar
    25     7     8   ar
    26     9    12   ar
    27    10    11   ar
    28    15    19   ar
    29    16    17   ar
    30    18    20   ar
    31    13    14    1
@<TRIPOS>MOLECULE
Molport-053-317-150 PubChem-110111773
 28 31 0 0 0
SMALL
GASTEIGER

@<TRIPOS>ATOM
      1 C          12.9895   41.4100    6.6407 C.3     1  UNL1        0.0724
      2 C          11.6044   41.0147    6.1099 C.3     1  UNL1        0.0177
      3 C          10.5679   40.8750    7.2288 C.3     1  UNL1        0.0072
      4 C          10.8297   41.8849    8.3455 C.3     1  UNL1        0.0385
      5 C          12.2694   41.8004    8.8849 C.3     1  UNL1        0.0767
      6 N          13.1553   40.9971    8.0332 N.3     1  UNL1       -0.2674
      7 C           9.8256   41.7767    9.4455 C.ar    1  UNL1       -0.0168
      8 C           8.4667   41.7930    9.1266 C.ar    1  UNL1        0.0302
      9 C           7.5161   41.6884   10.1456 C.ar    1  UNL1        0.1329
     10 C           9.2431   41.5564   11.7770 C.ar    1  UNL1        0.1000
     11 C          10.2199   41.6581   10.7846 C.ar    1  UNL1        0.0165
     12 N           7.9250   41.5758   11.4409 N.ar    1  UNL1       -0.2291
     13 N           6.1258   41.7202    9.8029 N.pl3   1  UNL1       -0.2821
     14 H           5.5869   40.9372   10.0594 H       1  UNL1        0.1551
     15 C           5.4430   42.7805    9.1233 C.ar    1  UNL1        0.1526
     16 C           5.3933   44.4962    7.4821 C.ar    1  UNL1        0.1210
     17 C           4.0796   44.8042    7.8440 C.ar    1  UNL1        0.1196
     18 C           4.1294   43.0932    9.4848 C.ar    1  UNL1        0.1332
     19 N           6.0453   43.4932    8.1291 N.ar    1  UNL1       -0.2258
     20 N           3.4770   44.0970    8.8382 N.ar    1  UNL1       -0.2378
     21 C          14.5134   41.3456    8.4048 C.3     1  UNL1        0.1183
     22 C          17.3848   42.1033    8.2994 C.3     1  UNL1        0.0323
     23 C          16.3440   42.8710    7.5567 C.ar    1  UNL1       -0.0069
     24 C          14.9846   42.5147    7.6039 C.ar    1  UNL1        0.0712
     25 C          14.4343   44.3182    6.1526 C.ar    1  UNL1        0.0985
     26 C          15.7739   44.7087    6.0914 C.ar    1  UNL1        0.0203
     27 C          16.7288   43.9780    6.7975 C.ar    1  UNL1       -0.0015
     28 N          14.0721   43.2406    6.8978 N.ar    1  UNL1       -0.2471
@<TRIPOS>BOND
     1    22    23    1
     2    24    28   ar
     3    25    26   ar
     4    27    23   ar
     5    21    24    1
     6    21     6    1
     7     1     6    1
     8     1     2    1
     9     2     3    1
    10     3     4    1
    11     4     5    1
    12     4     7    1
    13     5     6    1
    14     8     9   ar
    15     9    13    1
    16    10    12   ar
    17    11     7   ar
    18    16    19   ar
    19    17    20   ar
    20    18    15   ar
    21    13    15    1
    22    23    24   ar
    23    25    28   ar
    24    26    27   ar
    25     7     8   ar
    26     9    12   ar
    27    10    11   ar
    28    15    19   ar
    29    16    17   ar
    30    18    20   ar
    31    13    14    1
@<TRIPOS>MOLECULE
Molport-053-317-150 PubChem-110111773
 28 31 0 0 0
SMALL
GASTEIGER

@<TRIPOS>ATOM
      1 C          13.0164   40.5044    9.9534 C.3     1  UNL1        0.0724
      2 C          11.6756   40.6457   10.6876 C.3     1  UNL1        0.0177
      3 C          10.4860   40.7078    9.7250 C.3     1  UNL1        0.0072
      4 C          10.7312   39.8329    8.4961 C.3     1  UNL1        0.0385
      5 C          12.0568   40.1734    7.7907 C.3     1  UNL1        0.0767
      6 N          12.9296   41.0376    8.5950 N.3     1  UNL1       -0.2674
      7 C           9.5803   39.8673    7.5452 C.ar    1  UNL1       -0.0168
      8 C           8.3953   40.4919    7.9379 C.ar    1  UNL1        0.0302
      9 C           7.3116   40.5352    7.0566 C.ar    1  UNL1        0.1329
     10 C           8.5652   39.3501    5.4178 C.ar    1  UNL1        0.1000
     11 C           9.6677   39.2889    6.2722 C.ar    1  UNL1        0.0165
     12 N           7.4210   39.9635    5.8241 N.ar    1  UNL1       -0.2291
     13 N           6.0984   41.1681    7.4797 N.pl3   1  UNL1       -0.2821
     14 H           5.5656   41.6173    6.7843 H       1  UNL1        0.1551
     15 C           5.5849   41.2112    8.8164 C.ar    1  UNL1        0.1526
     16 C           3.7846   41.0101   10.3521 C.ar    1  UNL1        0.1210
     17 C           4.6528   41.2989   11.4076 C.ar    1  UNL1        0.1196
     18 C           6.4503   41.5028    9.8747 C.ar    1  UNL1        0.1332
     19 N           4.2687   40.9733    9.0816 N.ar    1  UNL1       -0.2258
     20 N           5.9662   41.5403   11.1458 N.ar    1  UNL1       -0.2378
     21 C          14.2591   40.9266    8.0258 C.3     1  UNL1        0.1183
     22 C          16.9015   42.2146    8.4606 C.3     1  UNL1        0.0323
     23 C          15.8841   42.8038    7.5431 C.ar    1  UNL1       -0.0069
     24 C          14.6332   42.1965    7.3346 C.ar    1  UNL1        0.0712
     25 C          14.0174   43.9244    5.8190 C.ar    1  UNL1        0.0985
     26 C          15.2452   44.5622    6.0104 C.ar    1  UNL1        0.0203
     27 C          16.1792   43.9947    6.8763 C.ar    1  UNL1       -0.0015
     28 N          13.7410   42.7673    6.4764 N.ar    1  UNL1       -0.2471
@<TRIPOS>BOND
     1    22    23    1
     2    24    28   ar
     3    25    26   ar
     4    27    23   ar
     5    21    24    1
     6    21     6    1
     7     1     6    1
     8     1     2    1
     9     2     3    1
    10     3     4    1
    11     4     5    1
    12     4     7    1
    13     5     6    1
    14     8     9   ar
    15     9    13    1
    16    10    12   ar
    17    11     7   ar
    18    16    19   ar
    19    17    20   ar
    20    18    15   ar
    21    13    15    1
    22    23    24   ar
    23    25    28   ar
    24    26    27   ar
    25     7     8   ar
    26     9    12   ar
    27    10    11   ar
    28    15    19   ar
    29    16    17   ar
    30    18    20   ar
    31    13    14    1
@<TRIPOS>MOLECULE
Molport-053-317-150 PubChem-110111773
 28 31 0 0 0
SMALL
GASTEIGER

@<TRIPOS>ATOM
      1 C          14.1626   39.8781    8.9508 C.3     1  UNL1        0.0724
      2 C          13.8707   39.3966   10.3789 C.3     1  UNL1        0.0177
      3 C          12.6124   40.0416   10.9673 C.3     1  UNL1        0.0072
      4 C          11.5611   40.2771    9.8834 C.3     1  UNL1        0.0385
      5 C          12.1164   41.0843    8.6955 C.3     1  UNL1        0.0767
      6 N          13.5800   41.1975    8.7125 N.3     1  UNL1       -0.2674
      7 C          10.3185   40.8964   10.4332 C.ar    1  UNL1       -0.0168
      8 C           9.3197   41.3102    9.5501 C.ar    1  UNL1        0.0302
      9 C           8.1498   41.8875   10.0509 C.ar    1  UNL1        0.1329
     10 C           8.9555   41.6488   12.2770 C.ar    1  UNL1        0.1000
     11 C          10.1365   41.0676   11.8117 C.ar    1  UNL1        0.0165
     12 N           7.9973   42.0449   11.3963 N.ar    1  UNL1       -0.2291
     13 N           7.1403   42.3189    9.1309 N.pl3   1  UNL1       -0.2821
     14 H           7.4498   42.7509    8.3021 H       1  UNL1        0.1551
     15 C           5.7242   42.1829    9.2993 C.ar    1  UNL1        0.1526
     16 C           3.8161   40.8682    9.8196 C.ar    1  UNL1        0.1210
     17 C           2.9950   41.9801    9.6175 C.ar    1  UNL1        0.1196
     18 C           4.8993   43.2928    9.0951 C.ar    1  UNL1        0.1332
     19 N           5.1604   40.9936    9.6557 N.ar    1  UNL1       -0.2258
     20 N           3.5543   43.1676    9.2584 N.ar    1  UNL1       -0.2378
     21 C          13.9800   41.5860    7.3735 C.3     1  UNL1        0.1183
     22 C          14.2237   44.0449    5.7229 C.3     1  UNL1        0.0323
     23 C          15.3121   43.6087    6.6444 C.ar    1  UNL1       -0.0069
     24 C          15.1996   42.4461    7.4272 C.ar    1  UNL1        0.0712
     25 C          17.3556   42.8319    8.3572 C.ar    1  UNL1        0.0985
     26 C          17.5075   43.9865    7.5860 C.ar    1  UNL1        0.0203
     27 C          16.4780   44.3726    6.7285 C.ar    1  UNL1       -0.0015
     28 N          16.2171   42.0952    8.2638 N.ar    1  UNL1       -0.2471
@<TRIPOS>BOND
     1    22    23    1
     2    24    28   ar
     3    25    26   ar
     4    27    23   ar
     5    21    24    1
     6    21     6    1
     7     1     6    1
     8     1     2    1
     9     2     3    1
    10     3     4    1
    11     4     5    1
    12     4     7    1
    13     5     6    1
    14     8     9   ar
    15     9    13    1
    16    10    12   ar
    17    11     7   ar
    18    16    19   ar
    19    17    20   ar
    20    18    15   ar
    21    13    15    1
    22    23    24   ar
    23    25    28   ar
    24    26    27   ar
    25     7     8   ar
    26     9    12   ar
    27    10    11   ar
    28    15    19   ar
    29    16    17   ar
    30    18    20   ar
    31    13    14    1
