@<TRIPOS>MOLECULE
Molport-047-017-564 585263107 MCULE-7410489732 MCULE-9561477741 PubChem-129569951 ZINC000585263107
 24 26 0 0 0
SMALL
GASTEIGER

@<TRIPOS>ATOM
      1 C          12.0467   40.2479    8.7845 C.ar    1  UNL1        0.0604
      2 C          11.2836   39.2312    8.2016 C.ar    1  UNL1        0.0148
      3 C          10.9236   39.3334    6.8583 C.ar    1  UNL1        0.0041
      4 C          11.3215   40.4455    6.1159 C.ar    1  UNL1        0.0344
      5 C          12.0788   41.4526    6.7297 C.ar    1  UNL1        0.1332
      6 N          12.4158   41.3274    8.0426 N.ar    1  UNL1       -0.2349
      7 N          12.5090   42.6168    6.0121 N.pl3   1  UNL1       -0.2782
      8 H          11.8818   42.9826    5.3472 H       1  UNL1        0.1555
      9 C          13.7578   43.3026    6.1630 C.ar    1  UNL1        0.1643
     10 C          15.2909   44.9307    5.9352 C.ar    1  UNL1        0.1030
     11 C          16.0114   44.0264    6.7037 C.ar    1  UNL1        0.0293
     12 C          17.4079   44.2191    7.1731 C.3     1  UNL1        0.0399
     13 N          14.0300   44.5180    5.6368 N.ar    1  UNL1       -0.2228
     14 S          15.0595   42.6780    7.0220 S.2     1  UNL1       -0.0557
     15 C          12.4312   40.1810   10.2257 C.3     1  UNL1        0.0458
     16 C          13.8360   37.1109    9.9994 C.3     1  UNL1        0.0540
     17 C          13.7156   37.6192   11.4417 C.3     1  UNL1        0.0157
     18 C          14.1934   39.0678   11.6273 C.3     1  UNL1        0.0018
     19 C          13.9282   39.9419   10.3968 C.3     1  UNL1        0.0060
     20 C          14.5449   39.3521    9.1148 C.3     1  UNL1        0.0018
     21 C          14.9108   37.8688    9.2258 C.3     1  UNL1        0.0157
     22 C          15.0105   35.4306    8.8772 C.3     1  UNL1        0.0858
     23 N          14.1367   35.6898   10.0083 N.3     1  UNL1       -0.2974
     24 H          14.6060   35.4370   10.8780 H       1  UNL1        0.1232
@<TRIPOS>BOND
     1    22    23    1
     2    16    23    1
     3    16    17    1
     4    17    18    1
     5    18    19    1
     6    19    15    1
     7    19    20    1
     8    15     1    1
     9     1     6   ar
    10     2     3   ar
    11     4     5   ar
    12     5     7    1
    13     9    14   ar
    14    10    13   ar
    15    11    14   ar
    16    12    11    1
    17    20    21    1
    18    21    16    1
    19     7     9    1
    20     1     2   ar
    21     3     4   ar
    22     5     6   ar
    23     9    13   ar
    24    10    11   ar
    25    23    24    1
    26     7     8    1
@<TRIPOS>MOLECULE
Molport-047-017-564 585263107 MCULE-7410489732 MCULE-9561477741 PubChem-129569951 ZINC000585263107
 24 26 0 0 0
SMALL
GASTEIGER

@<TRIPOS>ATOM
      1 C          10.2418   41.1699    8.5382 C.ar    1  UNL1        0.0604
      2 C          10.4712   39.8008    8.3684 C.ar    1  UNL1        0.0148
      3 C          11.3323   39.3737    7.3581 C.ar    1  UNL1        0.0041
      4 C          11.9477   40.3113    6.5285 C.ar    1  UNL1        0.0344
      5 C          11.6919   41.6764    6.7175 C.ar    1  UNL1        0.1332
      6 N          10.8467   42.0653    7.7111 N.ar    1  UNL1       -0.2349
      7 N          12.2958   42.6792    5.8897 N.pl3   1  UNL1       -0.2782
      8 H          11.7873   42.9610    5.0952 H       1  UNL1        0.1555
      9 C          13.5632   43.3133    6.0998 C.ar    1  UNL1        0.1643
     10 C          15.1770   44.8690    5.9322 C.ar    1  UNL1        0.1030
     11 C          15.8126   43.9496    6.7556 C.ar    1  UNL1        0.0293
     12 C          17.1878   44.0909    7.3004 C.3     1  UNL1        0.0399
     13 N          13.9178   44.5054    5.5695 N.ar    1  UNL1       -0.2228
     14 S          14.7858   42.6499    7.0419 S.2     1  UNL1       -0.0557
     15 C           9.3091   41.6605    9.5959 C.3     1  UNL1        0.0458
     16 C           7.0906   43.2068    7.5618 C.3     1  UNL1        0.0540
     17 C           6.8136   43.4405    9.0524 C.3     1  UNL1        0.0157
     18 C           6.8658   42.1585    9.8981 C.3     1  UNL1        0.0018
     19 C           7.8901   41.1452    9.3761 C.3     1  UNL1        0.0060
     20 C           7.6554   40.7827    7.8978 C.3     1  UNL1        0.0018
     21 C           6.7616   41.7754    7.1481 C.3     1  UNL1        0.0157
     22 C           5.1789   44.5512    7.5799 C.3     1  UNL1        0.0858
     23 N           6.3146   44.1454    6.7701 N.3     1  UNL1       -0.2974
     24 H           6.8839   44.9581    6.5338 H       1  UNL1        0.1232
@<TRIPOS>BOND
     1    22    23    1
     2    16    23    1
     3    16    17    1
     4    17    18    1
     5    18    19    1
     6    19    15    1
     7    19    20    1
     8    15     1    1
     9     1     6   ar
    10     2     3   ar
    11     4     5   ar
    12     5     7    1
    13     9    14   ar
    14    10    13   ar
    15    11    14   ar
    16    12    11    1
    17    20    21    1
    18    21    16    1
    19     7     9    1
    20     1     2   ar
    21     3     4   ar
    22     5     6   ar
    23     9    13   ar
    24    10    11   ar
    25    23    24    1
    26     7     8    1
@<TRIPOS>MOLECULE
Molport-047-017-564 585263107 MCULE-7410489732 MCULE-9561477741 PubChem-129569951 ZINC000585263107
 24 26 0 0 0
SMALL
GASTEIGER

@<TRIPOS>ATOM
      1 C           9.6400   42.1285    9.3030 C.ar    1  UNL1        0.0604
      2 C          10.1898   41.4750   10.4105 C.ar    1  UNL1        0.0148
      3 C          11.4939   40.9869   10.3363 C.ar    1  UNL1        0.0041
      4 C          12.2301   41.1498    9.1625 C.ar    1  UNL1        0.0344
      5 C          11.6493   41.8017    8.0660 C.ar    1  UNL1        0.1332
      6 N          10.3743   42.2677    8.1658 N.ar    1  UNL1       -0.2349
      7 N          12.3618   41.9908    6.8363 N.pl3   1  UNL1       -0.2782
      8 H          12.0192   41.5093    6.0489 H       1  UNL1        0.1555
      9 C          13.5209   42.8085    6.6356 C.ar    1  UNL1        0.1643
     10 C          14.7688   44.5190    5.8808 C.ar    1  UNL1        0.1030
     11 C          15.7270   43.8220    6.6042 C.ar    1  UNL1        0.0293
     12 C          17.1511   44.2199    6.7501 C.3     1  UNL1        0.0399
     13 N          13.5362   43.9451    5.9034 N.ar    1  UNL1       -0.2228
     14 S          15.0273   42.4564    7.2907 S.2     1  UNL1       -0.0557
     15 C           8.2392   42.6441    9.3407 C.3     1  UNL1        0.0458
     16 C           4.9265   43.1146    8.8358 C.3     1  UNL1        0.0540
     17 C           5.3662   41.6551    8.6630 C.3     1  UNL1        0.0157
     18 C           6.6267   41.4885    7.8000 C.3     1  UNL1        0.0018
     19 C           7.6078   42.6559    7.9519 C.3     1  UNL1        0.0060
     20 C           6.9508   44.0166    7.6539 C.3     1  UNL1        0.0018
     21 C           5.4196   43.9885    7.6863 C.3     1  UNL1        0.0157
     22 C           3.0226   41.8900    9.4171 C.3     1  UNL1        0.0858
     23 N           3.4781   43.1786    8.9249 N.3     1  UNL1       -0.2974
     24 H           3.1997   43.9178    9.5702 H       1  UNL1        0.1232
@<TRIPOS>BOND
     1    22    23    1
     2    16    23    1
     3    16    17    1
     4    17    18    1
     5    18    19    1
     6    19    15    1
     7    19    20    1
     8    15     1    1
     9     1     6   ar
    10     2     3   ar
    11     4     5   ar
    12     5     7    1
    13     9    14   ar
    14    10    13   ar
    15    11    14   ar
    16    12    11    1
    17    20    21    1
    18    21    16    1
    19     7     9    1
    20     1     2   ar
    21     3     4   ar
    22     5     6   ar
    23     9    13   ar
    24    10    11   ar
    25    23    24    1
    26     7     8    1
@<TRIPOS>MOLECULE
Molport-047-017-564 585263107 MCULE-7410489732 MCULE-9561477741 PubChem-129569951 ZINC000585263107
 24 26 0 0 0
SMALL
GASTEIGER

@<TRIPOS>ATOM
      1 C           9.7630   40.6272    7.5617 C.ar    1  UNL1        0.0604
      2 C          10.4480   39.6774    8.3262 C.ar    1  UNL1        0.0148
      3 C          11.8376   39.6034    8.2367 C.ar    1  UNL1        0.0041
      4 C          12.5253   40.4691    7.3858 C.ar    1  UNL1        0.0344
      5 C          11.8107   41.4051    6.6257 C.ar    1  UNL1        0.1332
      6 N          10.4546   41.4551    6.7322 N.ar    1  UNL1       -0.2349
      7 N          12.4695   42.3140    5.7339 N.pl3   1  UNL1       -0.2782
      8 H          12.0831   42.4069    4.8332 H       1  UNL1        0.1555
      9 C          13.6323   43.1010    6.0187 C.ar    1  UNL1        0.1643
     10 C          15.0413   44.8511    5.9517 C.ar    1  UNL1        0.1030
     11 C          15.7429   44.0089    6.8035 C.ar    1  UNL1        0.0293
     12 C          17.0569   44.3162    7.4254 C.3     1  UNL1        0.0399
     13 N          13.8606   44.3355    5.5167 N.ar    1  UNL1       -0.2228
     14 S          14.8760   42.5856    7.0236 S.2     1  UNL1       -0.0557
     15 C           8.2737   40.7192    7.6169 C.3     1  UNL1        0.0458
     16 C           7.8522   41.9126   10.7552 C.3     1  UNL1        0.0540
     17 C           6.5313   41.5867   10.0465 C.3     1  UNL1        0.0157
     18 C           6.4501   42.1312    8.6118 C.3     1  UNL1        0.0018
     19 C           7.8096   42.1437    7.9046 C.3     1  UNL1        0.0060
     20 C           8.8753   42.9241    8.6965 C.3     1  UNL1        0.0018
     21 C           8.5124   43.1560   10.1664 C.3     1  UNL1        0.0157
     22 C           8.5276   41.2311   12.8864 C.3     1  UNL1        0.0858
     23 N           7.6085   42.1022   12.1745 N.3     1  UNL1       -0.2974
     24 H           7.7781   43.0746   12.4317 H       1  UNL1        0.1232
@<TRIPOS>BOND
     1    22    23    1
     2    16    23    1
     3    16    17    1
     4    17    18    1
     5    18    19    1
     6    19    15    1
     7    19    20    1
     8    15     1    1
     9     1     6   ar
    10     2     3   ar
    11     4     5   ar
    12     5     7    1
    13     9    14   ar
    14    10    13   ar
    15    11    14   ar
    16    12    11    1
    17    20    21    1
    18    21    16    1
    19     7     9    1
    20     1     2   ar
    21     3     4   ar
    22     5     6   ar
    23     9    13   ar
    24    10    11   ar
    25    23    24    1
    26     7     8    1
@<TRIPOS>MOLECULE
Molport-047-017-564 585263107 MCULE-7410489732 MCULE-9561477741 PubChem-129569951 ZINC000585263107
 24 26 0 0 0
SMALL
GASTEIGER

@<TRIPOS>ATOM
      1 C          10.6212   40.3517    8.0065 C.ar    1  UNL1        0.0604
      2 C          10.0622   39.5001    7.0483 C.ar    1  UNL1        0.0148
      3 C          10.4318   39.6420    5.7113 C.ar    1  UNL1        0.0041
      4 C          11.3457   40.6303    5.3450 C.ar    1  UNL1        0.0344
      5 C          11.8828   41.4745    6.3266 C.ar    1  UNL1        0.1332
      6 N          11.5041   41.3141    7.6242 N.ar    1  UNL1       -0.2349
      7 N          12.8221   42.5078    6.0018 N.pl3   1  UNL1       -0.2782
      8 H          12.5394   43.1649    5.3254 H       1  UNL1        0.1555
      9 C          14.1298   42.6824    6.5603 C.ar    1  UNL1        0.1643
     10 C          15.9332   42.2622    7.8347 C.ar    1  UNL1        0.1030
     11 C          16.3597   43.4123    7.1846 C.ar    1  UNL1        0.0293
     12 C          17.6770   44.0712    7.3800 C.3     1  UNL1        0.0399
     13 N          14.6836   41.8600    7.4795 N.ar    1  UNL1       -0.2228
     14 S          15.1547   43.9457    6.1409 S.2     1  UNL1       -0.0557
     15 C          10.2313   40.2416    9.4437 C.3     1  UNL1        0.0458
     16 C           7.5991   41.4842   11.1692 C.3     1  UNL1        0.0540
     17 C           7.7919   42.1430    9.7974 C.3     1  UNL1        0.0157
     18 C           9.2448   42.5507    9.5074 C.3     1  UNL1        0.0018
     19 C          10.2654   41.5986   10.1401 C.3     1  UNL1        0.0060
     20 C          10.0622   41.4466   11.6591 C.3     1  UNL1        0.0018
     21 C           8.6870   41.9072   12.1521 C.3     1  UNL1        0.0157
     22 C           5.3043   41.1690   10.8580 C.3     1  UNL1        0.0858
     23 N           6.2901   41.8305   11.6951 N.3     1  UNL1       -0.2974
     24 H           6.2037   41.5076   12.6588 H       1  UNL1        0.1232
@<TRIPOS>BOND
     1    22    23    1
     2    16    23    1
     3    16    17    1
     4    17    18    1
     5    18    19    1
     6    19    15    1
     7    19    20    1
     8    15     1    1
     9     1     6   ar
    10     2     3   ar
    11     4     5   ar
    12     5     7    1
    13     9    14   ar
    14    10    13   ar
    15    11    14   ar
    16    12    11    1
    17    20    21    1
    18    21    16    1
    19     7     9    1
    20     1     2   ar
    21     3     4   ar
    22     5     6   ar
    23     9    13   ar
    24    10    11   ar
    25    23    24    1
    26     7     8    1
@<TRIPOS>MOLECULE
Molport-047-017-564 585263107 MCULE-7410489732 MCULE-9561477741 PubChem-129569951 ZINC000585263107
 24 26 0 0 0
SMALL
GASTEIGER

@<TRIPOS>ATOM
      1 C          12.5408   39.6026    8.7869 C.ar    1  UNL1        0.0604
      2 C          12.3152   39.0985   10.0718 C.ar    1  UNL1        0.0148
      3 C          13.3384   39.1581   11.0172 C.ar    1  UNL1        0.0041
      4 C          14.5714   39.7116   10.6713 C.ar    1  UNL1        0.0344
      5 C          14.7706   40.2012    9.3731 C.ar    1  UNL1        0.1332
      6 N          13.7546   40.1299    8.4701 N.ar    1  UNL1       -0.2349
      7 N          16.0197   40.7756    8.9665 N.pl3   1  UNL1       -0.2782
      8 H          16.8317   40.2592    9.1744 H       1  UNL1        0.1555
      9 C          16.2078   42.0237    8.2887 C.ar    1  UNL1        0.1643
     10 C          17.1994   43.9501    7.6901 C.ar    1  UNL1        0.1030
     11 C          16.0501   44.0190    6.9144 C.ar    1  UNL1        0.0293
     12 C          15.7047   45.1272    5.9869 C.3     1  UNL1        0.0399
     13 N          17.2802   42.8298    8.4567 N.ar    1  UNL1       -0.2228
     14 S          15.1078   42.6537    7.1863 S.2     1  UNL1       -0.0557
     15 C          11.4744   39.5350    7.7440 C.3     1  UNL1        0.0458
     16 C           8.9659   41.0878    9.4014 C.3     1  UNL1        0.0540
     17 C           8.5372   40.5229    8.0411 C.3     1  UNL1        0.0157
     18 C           9.5113   40.8553    6.9001 C.3     1  UNL1        0.0018
     19 C          10.9694   40.9242    7.3666 C.3     1  UNL1        0.0060
     20 C          11.1680   41.9193    8.5252 C.3     1  UNL1        0.0018
     21 C           9.8709   42.3060    9.2424 C.3     1  UNL1        0.0157
     22 C           6.7472   41.8016    9.2283 C.3     1  UNL1        0.0858
     23 N           7.7878   41.4395   10.1749 N.3     1  UNL1       -0.2974
     24 H           7.4877   40.6429   10.7369 H       1  UNL1        0.1232
@<TRIPOS>BOND
     1    22    23    1
     2    16    23    1
     3    16    17    1
     4    17    18    1
     5    18    19    1
     6    19    15    1
     7    19    20    1
     8    15     1    1
     9     1     6   ar
    10     2     3   ar
    11     4     5   ar
    12     5     7    1
    13     9    14   ar
    14    10    13   ar
    15    11    14   ar
    16    12    11    1
    17    20    21    1
    18    21    16    1
    19     7     9    1
    20     1     2   ar
    21     3     4   ar
    22     5     6   ar
    23     9    13   ar
    24    10    11   ar
    25    23    24    1
    26     7     8    1
@<TRIPOS>MOLECULE
Molport-047-017-564 585263107 MCULE-7410489732 MCULE-9561477741 PubChem-129569951 ZINC000585263107
 24 26 0 0 0
SMALL
GASTEIGER

@<TRIPOS>ATOM
      1 C          12.4786   40.4030   10.2805 C.ar    1  UNL1        0.0604
      2 C          12.7340   39.5392   11.3503 C.ar    1  UNL1        0.0148
      3 C          14.0298   39.0639   11.5486 C.ar    1  UNL1        0.0041
      4 C          15.0507   39.4485   10.6792 C.ar    1  UNL1        0.0344
      5 C          14.7626   40.3088    9.6109 C.ar    1  UNL1        0.1332
      6 N          13.4888   40.7573    9.4404 N.ar    1  UNL1       -0.2349
      7 N          15.7749   40.7305    8.6872 N.pl3   1  UNL1       -0.2782
      8 H          16.4681   40.0695    8.4597 H       1  UNL1        0.1555
      9 C          15.8814   42.0148    8.0613 C.ar    1  UNL1        0.1643
     10 C          16.7379   44.0305    7.5556 C.ar    1  UNL1        0.1030
     11 C          15.5992   44.0460    6.7616 C.ar    1  UNL1        0.0293
     12 C          15.1881   45.1619    5.8707 C.3     1  UNL1        0.0399
     13 N          16.8887   42.8897    8.2802 N.ar    1  UNL1       -0.2228
     14 S          14.7557   42.6060    6.9633 S.2     1  UNL1       -0.0557
     15 C          11.0986   40.9134   10.0262 C.3     1  UNL1        0.0458
     16 C           7.9278   42.0757   10.2388 C.3     1  UNL1        0.0540
     17 C           8.9237   43.1193    9.7172 C.3     1  UNL1        0.0157
     18 C          10.2156   43.2070   10.5447 C.3     1  UNL1        0.0018
     19 C          10.6357   41.8558   11.1330 C.3     1  UNL1        0.0060
     20 C           9.5207   41.2120   11.9781 C.3     1  UNL1        0.0018
     21 C           8.1298   41.8024   11.7264 C.3     1  UNL1        0.0157
     22 C           5.7330   41.3529    9.8880 C.3     1  UNL1        0.0858
     23 N           6.5711   42.5345    9.9960 N.3     1  UNL1       -0.2974
     24 H           6.2552   43.1177   10.7709 H       1  UNL1        0.1232
@<TRIPOS>BOND
     1    22    23    1
     2    16    23    1
     3    16    17    1
     4    17    18    1
     5    18    19    1
     6    19    15    1
     7    19    20    1
     8    15     1    1
     9     1     6   ar
    10     2     3   ar
    11     4     5   ar
    12     5     7    1
    13     9    14   ar
    14    10    13   ar
    15    11    14   ar
    16    12    11    1
    17    20    21    1
    18    21    16    1
    19     7     9    1
    20     1     2   ar
    21     3     4   ar
    22     5     6   ar
    23     9    13   ar
    24    10    11   ar
    25    23    24    1
    26     7     8    1
@<TRIPOS>MOLECULE
Molport-047-017-564 585263107 MCULE-7410489732 MCULE-9561477741 PubChem-129569951 ZINC000585263107
 24 26 0 0 0
SMALL
GASTEIGER

@<TRIPOS>ATOM
      1 C          10.1078   41.0597    9.1796 C.ar    1  UNL1        0.0604
      2 C          10.4333   40.6168   10.4656 C.ar    1  UNL1        0.0148
      3 C          11.7700   40.3885   10.7903 C.ar    1  UNL1        0.0041
      4 C          12.7623   40.5975    9.8322 C.ar    1  UNL1        0.0344
      5 C          12.4047   41.0335    8.5490 C.ar    1  UNL1        0.1332
      6 N          11.0922   41.2482    8.2591 N.ar    1  UNL1       -0.2349
      7 N          13.3855   41.2592    7.5280 N.pl3   1  UNL1       -0.2782
      8 H          13.1266   41.0252    6.6074 H       1  UNL1        0.1555
      9 C          14.7037   41.7901    7.7095 C.ar    1  UNL1        0.1643
     10 C          16.8031   41.9528    8.4964 C.ar    1  UNL1        0.1030
     11 C          16.7679   43.0678    7.6700 C.ar    1  UNL1        0.0293
     12 C          17.8904   44.0188    7.4620 C.3     1  UNL1        0.0399
     13 N          15.6435   41.2427    8.5129 N.ar    1  UNL1       -0.2228
     14 S          15.2578   43.1767    6.9397 S.2     1  UNL1       -0.0557
     15 C           8.6849   41.2932    8.7917 C.3     1  UNL1        0.0458
     16 C           6.0198   43.2171    7.9880 C.3     1  UNL1        0.0540
     17 C           7.3166   44.0178    8.1627 C.3     1  UNL1        0.0157
     18 C           8.1020   43.6511    9.4316 C.3     1  UNL1        0.0018
     19 C           7.9629   42.1722    9.8083 C.3     1  UNL1        0.0060
     20 C           6.4923   41.7430    9.9659 C.3     1  UNL1        0.0018
     21 C           5.4903   42.7087    9.3258 C.3     1  UNL1        0.0157
     22 C           3.9715   44.2945    8.3136 C.3     1  UNL1        0.0858
     23 N           5.0198   44.0470    7.3390 N.3     1  UNL1       -0.2974
     24 H           5.4367   44.9292    7.0419 H       1  UNL1        0.1232
@<TRIPOS>BOND
     1    22    23    1
     2    16    23    1
     3    16    17    1
     4    17    18    1
     5    18    19    1
     6    19    15    1
     7    19    20    1
     8    15     1    1
     9     1     6   ar
    10     2     3   ar
    11     4     5   ar
    12     5     7    1
    13     9    14   ar
    14    10    13   ar
    15    11    14   ar
    16    12    11    1
    17    20    21    1
    18    21    16    1
    19     7     9    1
    20     1     2   ar
    21     3     4   ar
    22     5     6   ar
    23     9    13   ar
    24    10    11   ar
    25    23    24    1
    26     7     8    1
@<TRIPOS>MOLECULE
Molport-047-017-564 585263107 MCULE-7410489732 MCULE-9561477741 PubChem-129569951 ZINC000585263107
 24 26 0 0 0
SMALL
GASTEIGER

@<TRIPOS>ATOM
      1 C          11.9789   42.1016    9.2784 C.ar    1  UNL1        0.0604
      2 C          12.5386   40.8903    9.6972 C.ar    1  UNL1        0.0148
      3 C          11.9038   40.1556   10.6980 C.ar    1  UNL1        0.0041
      4 C          10.7267   40.6369   11.2716 C.ar    1  UNL1        0.0344
      5 C          10.1940   41.8584   10.8370 C.ar    1  UNL1        0.1332
      6 N          10.8347   42.5552    9.8588 N.ar    1  UNL1       -0.2349
      7 N           8.9896   42.3984   11.3968 N.pl3   1  UNL1       -0.2782
      8 H           9.0950   43.1178   12.0606 H       1  UNL1        0.1555
      9 C           7.6486   41.9989   11.0895 C.ar    1  UNL1        0.1643
     10 C           5.5923   41.1509   11.4142 C.ar    1  UNL1        0.1030
     11 C           5.4968   41.5101   10.0767 C.ar    1  UNL1        0.0293
     12 C           4.2968   41.3235    9.2205 C.3     1  UNL1        0.0399
     13 N           6.8002   41.4279   11.9741 N.ar    1  UNL1       -0.2228
     14 S           6.9497   42.1898    9.5737 S.2     1  UNL1       -0.0557
     15 C          12.6441   42.9241    8.2246 C.3     1  UNL1        0.0458
     16 C          15.4202   44.1185    6.7024 C.3     1  UNL1        0.0540
     17 C          14.2249   43.9653    5.7531 C.3     1  UNL1        0.0157
     18 C          13.5019   42.6157    5.8841 C.3     1  UNL1        0.0018
     19 C          13.5215   42.0690    7.3156 C.3     1  UNL1        0.0060
     20 C          14.9502   41.9493    7.8780 C.3     1  UNL1        0.0018
     21 C          15.9931   42.7629    7.1055 C.3     1  UNL1        0.0157
     22 C          17.6555   44.1192    6.0198 C.3     1  UNL1        0.0858
     23 N          16.4471   44.9241    6.0649 N.3     1  UNL1       -0.2974
     24 H          16.1582   45.1748    5.1194 H       1  UNL1        0.1232
@<TRIPOS>BOND
     1    22    23    1
     2    16    23    1
     3    16    17    1
     4    17    18    1
     5    18    19    1
     6    19    15    1
     7    19    20    1
     8    15     1    1
     9     1     6   ar
    10     2     3   ar
    11     4     5   ar
    12     5     7    1
    13     9    14   ar
    14    10    13   ar
    15    11    14   ar
    16    12    11    1
    17    20    21    1
    18    21    16    1
    19     7     9    1
    20     1     2   ar
    21     3     4   ar
    22     5     6   ar
    23     9    13   ar
    24    10    11   ar
    25    23    24    1
    26     7     8    1
@<TRIPOS>MOLECULE
Molport-047-017-564 585263107 MCULE-7410489732 MCULE-9561477741 PubChem-129569951 ZINC000585263107
 24 26 0 0 0
SMALL
GASTEIGER

@<TRIPOS>ATOM
      1 C          14.6173   41.5796    7.8082 C.ar    1  UNL1        0.0604
      2 C          14.8313   42.7529    7.0780 C.ar    1  UNL1        0.0148
      3 C          16.0725   43.3844    7.1503 C.ar    1  UNL1        0.0041
      4 C          17.0799   42.8451    7.9505 C.ar    1  UNL1        0.0344
      5 C          16.8331   41.6724    8.6775 C.ar    1  UNL1        0.1332
      6 N          15.6123   41.0770    8.5888 N.ar    1  UNL1       -0.2349
      7 N          17.8332   41.0804    9.5171 N.pl3   1  UNL1       -0.2782
      8 H          18.6025   41.6470    9.7545 H       1  UNL1        0.1555
      9 C          17.8282   39.7490   10.0461 C.ar    1  UNL1        0.1643
     10 C          17.0460   37.9104   11.0761 C.ar    1  UNL1        0.1030
     11 C          18.3259   37.4803   10.7534 C.ar    1  UNL1        0.0293
     12 C          18.8870   36.1409   11.0680 C.3     1  UNL1        0.0399
     13 N          16.7751   39.1818   10.6765 N.ar    1  UNL1       -0.2228
     14 S          19.1447   38.7097    9.9509 S.2     1  UNL1       -0.0557
     15 C          13.2936   40.8897    7.7708 C.3     1  UNL1        0.0458
     16 C          10.0199   40.0398    7.8752 C.3     1  UNL1        0.0540
     17 C          10.6071   40.0233    6.4581 C.3     1  UNL1        0.0157
     18 C          11.4389   41.2704    6.1203 C.3     1  UNL1        0.0018
     19 C          12.1791   41.8368    7.3367 C.3     1  UNL1        0.0060
     20 C          11.2293   42.1480    8.5084 C.3     1  UNL1        0.0018
     21 C           9.8631   41.4638    8.4004 C.3     1  UNL1        0.0157
     22 C           8.8881   38.1513    7.0909 C.3     1  UNL1        0.0858
     23 N           8.7344   39.3635    7.8766 N.3     1  UNL1       -0.2974
     24 H           8.4635   39.1293    8.8317 H       1  UNL1        0.1232
@<TRIPOS>BOND
     1    22    23    1
     2    16    23    1
     3    16    17    1
     4    17    18    1
     5    18    19    1
     6    19    15    1
     7    19    20    1
     8    15     1    1
     9     1     6   ar
    10     2     3   ar
    11     4     5   ar
    12     5     7    1
    13     9    14   ar
    14    10    13   ar
    15    11    14   ar
    16    12    11    1
    17    20    21    1
    18    21    16    1
    19     7     9    1
    20     1     2   ar
    21     3     4   ar
    22     5     6   ar
    23     9    13   ar
    24    10    11   ar
    25    23    24    1
    26     7     8    1
