@<TRIPOS>MOLECULE
MolPort-019-935-295 67896704 CSSS00159303833 MCULE-5178677902 PubChem-56774757 ZINC000067896704 ZINC67896704
 36 39 0 0 0
SMALL
GASTEIGER

@<TRIPOS>ATOM
      1 C           6.0956   41.0471    8.1518 C.3     1  UNL1        0.1532
      2 O           5.3869   40.2897    7.2165 O.3     1  UNL1       -0.3783
      3 H           4.6311   40.8029    6.8908 H       1  UNL1        0.2109
      4 C           6.6816   42.3198    7.5233 C.3     1  UNL1        0.1362
      5 C           5.7417   43.5008    7.8469 C.3     1  UNL1        0.1653
      6 C           7.2376   44.7552    8.9689 C.3     1  UNL1        0.2272
      7 C           8.2998   43.7114    8.8514 C.2     1  UNL1        0.2562
      8 O           6.4317   44.7251    7.8168 O.3     1  UNL1       -0.3426
      9 O           9.3977   43.8457    9.4543 O.2     1  UNL1       -0.2721
     10 N           8.0476   42.5755    8.0113 N.am    1  UNL1       -0.2697
     11 C           9.1693   41.8676    7.3988 C.3     1  UNL1        0.1233
     12 C          11.5030   41.5780    8.4153 C.ar    1  UNL1        0.1363
     13 C          10.1021   41.3538    8.4530 C.ar    1  UNL1        0.0317
     14 C           9.5375   40.7112    9.5627 C.ar    1  UNL1        0.0004
     15 C          10.3347   40.3014   10.6316 C.ar    1  UNL1       -0.0001
     16 C          11.7077   40.5419   10.6067 C.ar    1  UNL1        0.0031
     17 C          12.2845   41.1790    9.5063 C.ar    1  UNL1        0.0366
     18 C          13.5677   42.4286    7.3077 C.3     1  UNL1        0.2525
     19 O          12.1696   42.1859    7.3424 O.3     1  UNL1       -0.4717
     20 C           5.2069   41.3691    9.3127 C.ar    1  UNL1        0.0060
     21 C           3.8440   41.5896    9.0926 C.ar    1  UNL1       -0.0006
     22 C           3.0010   41.8964   10.1641 C.ar    1  UNL1        0.0144
     23 C           3.5128   41.9865   11.4674 C.ar    1  UNL1        0.0506
     24 C           4.8778   41.7682   11.6830 C.ar    1  UNL1        0.0144
     25 C           5.7227   41.4606   10.6131 C.ar    1  UNL1       -0.0006
     26 C           1.2467   42.3748   12.6071 C.2     1  UNL1        0.2669
     27 O           0.5788   42.0936   11.5765 O.2     1  UNL1       -0.2682
     28 N           2.6803   42.3073   12.5903 N.am    1  UNL1       -0.2791
     29 H           3.1405   42.5018   13.4386 H       1  UNL1        0.1552
     30 C           0.5584   42.7724   13.8498 C.ar    1  UNL1        0.1326
     31 C           0.8053   43.9456   14.5453 C.ar    1  UNL1        0.0398
     32 C          -0.0711   43.8555   15.6141 C.ar    1  UNL1        0.0806
     33 C          -0.2113   44.8713   16.6901 C.3     1  UNL1        0.0540
     34 C          -0.9525   40.7774   14.0995 C.3     1  UNL1        0.1539
     35 N          -0.7870   42.7175   15.5666 N.ar    1  UNL1       -0.1735
     36 N          -0.3980   42.0643   14.4880 N.ar    1  UNL1       -0.2447
@<TRIPOS>BOND
     1    18    19    1
     2    12    19    1
     3    13    14   ar
     4    11    13    1
     5    11    10    1
     6     4    10    1
     7     4     5    1
     8     4     1    1
     9     5     8    1
    10     6     8    1
    11     6     7    1
    12     7    10   am
    13     1     2    1
    14     1    20    1
    15    21    22   ar
    16    23    28    1
    17    23    24   ar
    18    26    30    1
    19    31    32   ar
    20    33    32    1
    21    34    36    1
    22    25    20   ar
    23    15    16   ar
    24    17    12   ar
    25    28    26   am
    26    36    35   ar
    27    36    30   ar
    28    12    13   ar
    29     7     9    2
    30    20    21   ar
    31    22    23   ar
    32    26    27    2
    33    30    31   ar
    34    32    35   ar
    35    24    25   ar
    36    14    15   ar
    37    16    17   ar
    38     2     3    1
    39    28    29    1
@<TRIPOS>MOLECULE
MolPort-019-935-295 67896704 CSSS00159303833 MCULE-5178677902 PubChem-56774757 ZINC000067896704 ZINC67896704
 36 39 0 0 0
SMALL
GASTEIGER

@<TRIPOS>ATOM
      1 C           6.1021   41.0833    8.1697 C.3     1  UNL1        0.1532
      2 O           5.4331   40.3619    7.1784 O.3     1  UNL1       -0.3783
      3 H           4.6463   40.8538    6.8958 H       1  UNL1        0.2109
      4 C           6.6083   42.4341    7.6434 C.3     1  UNL1        0.1362
      5 C           5.8428   43.5592    8.3721 C.3     1  UNL1        0.1653
      6 C           7.6307   44.5613    9.3047 C.3     1  UNL1        0.2272
      7 C           8.5705   43.5319    8.7674 C.2     1  UNL1        0.2562
      8 O           6.5833   44.7540    8.3862 O.3     1  UNL1       -0.3426
      9 O           9.7830   43.5329    9.1089 O.2     1  UNL1       -0.2721
     10 N           8.0628   42.5691    7.8321 N.am    1  UNL1       -0.2697
     11 C           8.9689   41.9567    6.8633 C.3     1  UNL1        0.1233
     12 C          10.3550   40.2837    8.2207 C.ar    1  UNL1        0.1363
     13 C           9.3240   40.5639    7.2867 C.ar    1  UNL1        0.0317
     14 C           8.5302   39.5157    6.8026 C.ar    1  UNL1        0.0004
     15 C           8.7357   38.2060    7.2371 C.ar    1  UNL1       -0.0001
     16 C           9.7327   37.9326    8.1724 C.ar    1  UNL1        0.0031
     17 C          10.5330   38.9668    8.6615 C.ar    1  UNL1        0.0366
     18 C          12.1540   41.0095    9.7862 C.3     1  UNL1        0.2525
     19 O          11.2211   41.2535    8.7445 O.3     1  UNL1       -0.4717
     20 C           5.2035   41.2591    9.3541 C.ar    1  UNL1        0.0060
     21 C           5.7451   41.1945   10.6413 C.ar    1  UNL1       -0.0006
     22 C           4.9199   41.3512   11.7583 C.ar    1  UNL1        0.0144
     23 C           3.5437   41.5734   11.5991 C.ar    1  UNL1        0.0506
     24 C           3.0052   41.6341   10.3093 C.ar    1  UNL1        0.0144
     25 C           3.8285   41.4784    9.1908 C.ar    1  UNL1       -0.0006
     26 C           1.3105   42.2057   12.6935 C.2     1  UNL1        0.2669
     27 O           0.7536   42.4937   11.6007 O.2     1  UNL1       -0.2682
     28 N           2.6645   41.7303   12.7212 N.am    1  UNL1       -0.2791
     29 H           3.0278   41.4864   13.6030 H       1  UNL1        0.1552
     30 C           0.5708   42.3491   13.9618 C.ar    1  UNL1        0.1326
     31 C           1.1020   42.8797   15.1268 C.ar    1  UNL1        0.0398
     32 C           0.0389   42.7970   16.0108 C.ar    1  UNL1        0.0806
     33 C           0.0743   43.2349   17.4307 C.3     1  UNL1        0.0540
     34 C          -1.6344   41.3918   13.2232 C.3     1  UNL1        0.1539
     35 N          -1.0453   42.2576   15.4247 N.ar    1  UNL1       -0.1735
     36 N          -0.7128   41.9889   14.1763 N.ar    1  UNL1       -0.2447
@<TRIPOS>BOND
     1    18    19    1
     2    12    19    1
     3    13    14   ar
     4    11    13    1
     5    11    10    1
     6     4    10    1
     7     4     5    1
     8     4     1    1
     9     5     8    1
    10     6     8    1
    11     6     7    1
    12     7    10   am
    13     1     2    1
    14     1    20    1
    15    21    22   ar
    16    23    28    1
    17    23    24   ar
    18    26    30    1
    19    31    32   ar
    20    33    32    1
    21    34    36    1
    22    25    20   ar
    23    15    16   ar
    24    17    12   ar
    25    28    26   am
    26    36    35   ar
    27    36    30   ar
    28    12    13   ar
    29     7     9    2
    30    20    21   ar
    31    22    23   ar
    32    26    27    2
    33    30    31   ar
    34    32    35   ar
    35    24    25   ar
    36    14    15   ar
    37    16    17   ar
    38     2     3    1
    39    28    29    1
@<TRIPOS>MOLECULE
MolPort-019-935-295 67896704 CSSS00159303833 MCULE-5178677902 PubChem-56774757 ZINC000067896704 ZINC67896704
 36 39 0 0 0
SMALL
GASTEIGER

@<TRIPOS>ATOM
      1 C           5.9305   40.5510    8.3258 C.3     1  UNL1        0.1532
      2 O           5.1401   40.2563    7.2126 O.3     1  UNL1       -0.3783
      3 H           4.6973   41.0637    6.9077 H       1  UNL1        0.2109
      4 C           7.0471   41.5471    7.9803 C.3     1  UNL1        0.1362
      5 C           7.0186   41.8028    6.4583 C.3     1  UNL1        0.1653
      6 C           6.6503   44.0223    6.5501 C.3     1  UNL1        0.2272
      7 C           6.5552   44.0114    8.0408 C.2     1  UNL1        0.2562
      8 O           7.5812   43.0512    6.1401 O.3     1  UNL1       -0.3426
      9 O           6.2130   45.0494    8.6672 O.2     1  UNL1       -0.2721
     10 N           6.8945   42.8024    8.7355 N.am    1  UNL1       -0.2697
     11 C           7.3835   42.8730   10.1104 C.3     1  UNL1        0.1233
     12 C           9.2839   41.5815   11.2434 C.ar    1  UNL1        0.1363
     13 C           8.8022   42.3966   10.1863 C.ar    1  UNL1        0.0317
     14 C           9.6473   42.6990    9.1104 C.ar    1  UNL1        0.0004
     15 C          10.9488   42.1990    9.0632 C.ar    1  UNL1       -0.0001
     16 C          11.4156   41.3787   10.0893 C.ar    1  UNL1        0.0031
     17 C          10.5855   41.0711   11.1689 C.ar    1  UNL1        0.0366
     18 C           9.0756   41.0840   13.6771 C.3     1  UNL1        0.2525
     19 O           8.5306   41.2430   12.3761 O.3     1  UNL1       -0.4717
     20 C           5.0640   41.0626    9.4342 C.ar    1  UNL1        0.0060
     21 C           4.0416   41.9702    9.1423 C.ar    1  UNL1       -0.0006
     22 C           3.2267   42.4620   10.1656 C.ar    1  UNL1        0.0144
     23 C           3.4267   42.0513   11.4922 C.ar    1  UNL1        0.0506
     24 C           4.4530   41.1454   11.7806 C.ar    1  UNL1        0.0144
     25 C           5.2688   40.6517   10.7589 C.ar    1  UNL1       -0.0006
     26 C           1.1831   42.5255   12.6437 C.2     1  UNL1        0.2669
     27 O           0.4982   42.0051   11.7232 O.2     1  UNL1       -0.2682
     28 N           2.6164   42.5406   12.5696 N.am    1  UNL1       -0.2791
     29 H           3.0933   42.9276   13.3390 H       1  UNL1        0.1552
     30 C           0.5157   43.1223   13.8162 C.ar    1  UNL1        0.1326
     31 C           0.7568   44.4014   14.2924 C.ar    1  UNL1        0.0398
     32 C          -0.0936   44.4853   15.3824 C.ar    1  UNL1        0.0806
     33 C          -0.2281   45.6697   16.2702 C.3     1  UNL1        0.0540
     34 C          -0.9531   41.1797   14.4441 C.3     1  UNL1        0.1539
     35 N          -0.7898   43.3463   15.5500 N.ar    1  UNL1       -0.1735
     36 N          -0.4133   42.5219   14.5908 N.ar    1  UNL1       -0.2447
@<TRIPOS>BOND
     1    18    19    1
     2    12    19    1
     3    13    14   ar
     4    11    13    1
     5    11    10    1
     6     4    10    1
     7     4     5    1
     8     4     1    1
     9     5     8    1
    10     6     8    1
    11     6     7    1
    12     7    10   am
    13     1     2    1
    14     1    20    1
    15    21    22   ar
    16    23    28    1
    17    23    24   ar
    18    26    30    1
    19    31    32   ar
    20    33    32    1
    21    34    36    1
    22    25    20   ar
    23    15    16   ar
    24    17    12   ar
    25    28    26   am
    26    36    35   ar
    27    36    30   ar
    28    12    13   ar
    29     7     9    2
    30    20    21   ar
    31    22    23   ar
    32    26    27    2
    33    30    31   ar
    34    32    35   ar
    35    24    25   ar
    36    14    15   ar
    37    16    17   ar
    38     2     3    1
    39    28    29    1
@<TRIPOS>MOLECULE
MolPort-019-935-295 67896704 CSSS00159303833 MCULE-5178677902 PubChem-56774757 ZINC000067896704 ZINC67896704
 36 39 0 0 0
SMALL
GASTEIGER

@<TRIPOS>ATOM
      1 C           7.0231   41.0686    9.5465 C.3     1  UNL1        0.1532
      2 O           6.7587   41.2210   10.9094 O.3     1  UNL1       -0.3783
      3 H           6.8656   42.1527   11.1573 H       1  UNL1        0.2109
      4 C           6.0271   41.8577    8.6843 C.3     1  UNL1        0.1362
      5 C           5.7706   43.2215    9.3603 C.3     1  UNL1        0.1653
      6 C           6.4898   44.5182    7.6657 C.3     1  UNL1        0.2272
      7 C           6.8968   43.3366    6.8473 C.2     1  UNL1        0.2562
      8 O           5.3539   44.1844    8.4247 O.3     1  UNL1       -0.3426
      9 O           7.5212   43.4935    5.7645 O.2     1  UNL1       -0.2721
     10 N           6.5296   42.0290    7.3104 N.am    1  UNL1       -0.2697
     11 C           6.3610   40.9432    6.3475 C.3     1  UNL1        0.1233
     12 C           8.8254   40.3702    5.9458 C.ar    1  UNL1        0.1363
     13 C           7.5312   40.0089    6.4023 C.ar    1  UNL1        0.0317
     14 C           7.3417   38.7663    7.0214 C.ar    1  UNL1        0.0004
     15 C           8.4113   37.8893    7.2028 C.ar    1  UNL1       -0.0001
     16 C           9.6879   38.2526    6.7761 C.ar    1  UNL1        0.0031
     17 C           9.8911   39.4867    6.1553 C.ar    1  UNL1        0.0366
     18 C          10.4286   42.0786    5.0942 C.3     1  UNL1        0.2525
     19 O           9.1161   41.5750    5.2908 O.3     1  UNL1       -0.4717
     20 C           8.4356   41.4748    9.2616 C.ar    1  UNL1        0.0060
     21 C           9.4662   40.5487    9.4476 C.ar    1  UNL1       -0.0006
     22 C          10.7910   40.9127    9.1916 C.ar    1  UNL1        0.0144
     23 C          11.0987   42.2075    8.7473 C.ar    1  UNL1        0.0506
     24 C          10.0647   43.1322    8.5655 C.ar    1  UNL1        0.0144
     25 C           8.7391   42.7704    8.8202 C.ar    1  UNL1       -0.0006
     26 C          13.3326   42.0793    7.4910 C.2     1  UNL1        0.2669
     27 O          12.9417   41.1754    6.7053 O.2     1  UNL1       -0.2682
     28 N          12.4465   42.6197    8.4825 N.am    1  UNL1       -0.2791
     29 H          12.8013   43.3501    9.0392 H       1  UNL1        0.1552
     30 C          14.7101   42.5984    7.3957 C.ar    1  UNL1        0.1326
     31 C          15.7938   42.0866    8.0919 C.ar    1  UNL1        0.0398
     32 C          16.8353   42.8973    7.6719 C.ar    1  UNL1        0.0806
     33 C          18.2452   42.7792    8.1273 C.3     1  UNL1        0.0540
     34 C          14.3016   44.4530    5.7469 C.3     1  UNL1        0.1539
     35 N          16.4116   43.8247    6.7942 N.ar    1  UNL1       -0.1735
     36 N          15.1160   43.6345    6.6307 N.ar    1  UNL1       -0.2447
@<TRIPOS>BOND
     1    18    19    1
     2    12    19    1
     3    13    14   ar
     4    11    13    1
     5    11    10    1
     6     4    10    1
     7     4     5    1
     8     4     1    1
     9     5     8    1
    10     6     8    1
    11     6     7    1
    12     7    10   am
    13     1     2    1
    14     1    20    1
    15    21    22   ar
    16    23    28    1
    17    23    24   ar
    18    26    30    1
    19    31    32   ar
    20    33    32    1
    21    34    36    1
    22    25    20   ar
    23    15    16   ar
    24    17    12   ar
    25    28    26   am
    26    36    35   ar
    27    36    30   ar
    28    12    13   ar
    29     7     9    2
    30    20    21   ar
    31    22    23   ar
    32    26    27    2
    33    30    31   ar
    34    32    35   ar
    35    24    25   ar
    36    14    15   ar
    37    16    17   ar
    38     2     3    1
    39    28    29    1
@<TRIPOS>MOLECULE
MolPort-019-935-295 67896704 CSSS00159303833 MCULE-5178677902 PubChem-56774757 ZINC000067896704 ZINC67896704
 36 39 0 0 0
SMALL
GASTEIGER

@<TRIPOS>ATOM
      1 C           7.3019   41.6709    6.4141 C.3     1  UNL1        0.1532
      2 O           6.2026   40.9091    6.8166 O.3     1  UNL1       -0.3783
      3 H           6.2474   40.7574    7.7737 H       1  UNL1        0.2109
      4 C           7.2984   43.0603    7.0681 C.3     1  UNL1        0.1362
      5 C           6.8237   44.0908    6.0214 C.3     1  UNL1        0.1653
      6 C           5.0188   44.8286    7.1476 C.3     1  UNL1        0.2272
      7 C           5.2303   43.8516    8.2578 C.2     1  UNL1        0.2562
      8 O           6.2680   45.2253    6.6379 O.3     1  UNL1       -0.3426
      9 O           4.3752   43.7312    9.1749 O.2     1  UNL1       -0.2721
     10 N           6.4426   43.0837    8.2666 N.am    1  UNL1       -0.2697
     11 C           6.9749   42.5900    9.5345 C.3     1  UNL1        0.1233
     12 C           6.0728   41.2980   11.5544 C.ar    1  UNL1        0.1363
     13 C           5.9996   41.6553   10.1829 C.ar    1  UNL1        0.0317
     14 C           4.9223   41.2020    9.4101 C.ar    1  UNL1        0.0004
     15 C           3.9191   40.4155    9.9767 C.ar    1  UNL1       -0.0001
     16 C           3.9773   40.0833   11.3294 C.ar    1  UNL1        0.0031
     17 C           5.0462   40.5258   12.1111 C.ar    1  UNL1        0.0366
     18 C           8.3999   41.0618   12.4159 C.3     1  UNL1        0.2525
     19 O           7.1200   41.6754   12.4065 O.3     1  UNL1       -0.4717
     20 C           8.5651   40.9266    6.7165 C.ar    1  UNL1        0.0060
     21 C           9.7973   41.5494    6.4972 C.ar    1  UNL1       -0.0006
     22 C          10.9864   40.8673    6.7690 C.ar    1  UNL1        0.0144
     23 C          10.9551   39.5543    7.2627 C.ar    1  UNL1        0.0506
     24 C           9.7200   38.9335    7.4778 C.ar    1  UNL1        0.0144
     25 C           8.5295   39.6138    7.2073 C.ar    1  UNL1       -0.0006
     26 C          12.7649   38.6311    8.8303 C.2     1  UNL1        0.2669
     27 O          12.2258   39.0928    9.8711 O.2     1  UNL1       -0.2682
     28 N          12.1542   38.8200    7.5452 N.am    1  UNL1       -0.2791
     29 H          12.6058   38.4014    6.7770 H       1  UNL1        0.1552
     30 C          14.0327   37.8827    8.9228 C.ar    1  UNL1        0.1326
     31 C          14.1716   36.5324    8.6427 C.ar    1  UNL1        0.0398
     32 C          15.5190   36.3108    8.8744 C.ar    1  UNL1        0.0806
     33 C          16.2063   35.0015    8.7246 C.3     1  UNL1        0.0540
     34 C          15.5275   39.7626    9.6687 C.3     1  UNL1        0.1539
     35 N          16.1412   37.4380    9.2648 N.ar    1  UNL1       -0.1735
     36 N          15.2286   38.3908    9.2904 N.ar    1  UNL1       -0.2447
@<TRIPOS>BOND
     1    18    19    1
     2    12    19    1
     3    13    14   ar
     4    11    13    1
     5    11    10    1
     6     4    10    1
     7     4     5    1
     8     4     1    1
     9     5     8    1
    10     6     8    1
    11     6     7    1
    12     7    10   am
    13     1     2    1
    14     1    20    1
    15    21    22   ar
    16    23    28    1
    17    23    24   ar
    18    26    30    1
    19    31    32   ar
    20    33    32    1
    21    34    36    1
    22    25    20   ar
    23    15    16   ar
    24    17    12   ar
    25    28    26   am
    26    36    35   ar
    27    36    30   ar
    28    12    13   ar
    29     7     9    2
    30    20    21   ar
    31    22    23   ar
    32    26    27    2
    33    30    31   ar
    34    32    35   ar
    35    24    25   ar
    36    14    15   ar
    37    16    17   ar
    38     2     3    1
    39    28    29    1
@<TRIPOS>MOLECULE
MolPort-019-935-295 67896704 CSSS00159303833 MCULE-5178677902 PubChem-56774757 ZINC000067896704 ZINC67896704
 36 39 0 0 0
SMALL
GASTEIGER

@<TRIPOS>ATOM
      1 C           6.1730   40.8447    8.0894 C.3     1  UNL1        0.1532
      2 O           5.3924   40.2863    7.0748 O.3     1  UNL1       -0.3783
      3 H           4.7499   40.9426    6.7629 H       1  UNL1        0.2109
      4 C           6.9938   42.0387    7.5807 C.3     1  UNL1        0.1362
      5 C           6.4795   43.3164    8.2778 C.3     1  UNL1        0.1653
      6 C           8.4134   43.8931    9.2766 C.3     1  UNL1        0.2272
      7 C           9.1121   42.6708    8.7774 C.2     1  UNL1        0.2562
      8 O           7.4726   44.3105    8.3183 O.3     1  UNL1       -0.3426
      9 O          10.2793   42.3983    9.1652 O.2     1  UNL1       -0.2721
     10 N           8.4327   41.8398    7.8249 N.am    1  UNL1       -0.2697
     11 C           9.2099   41.0267    6.8925 C.3     1  UNL1        0.1233
     12 C          11.2545   40.1161    8.1388 C.ar    1  UNL1        0.1363
     13 C          10.6629   41.0576    7.2570 C.ar    1  UNL1        0.0317
     14 C          11.4735   42.0035    6.6154 C.ar    1  UNL1        0.0004
     15 C          12.8525   42.0210    6.8257 C.ar    1  UNL1       -0.0001
     16 C          13.4381   41.0819    7.6734 C.ar    1  UNL1        0.0031
     17 C          12.6425   40.1351    8.3214 C.ar    1  UNL1        0.0366
     18 C          11.0420   37.8714    9.2018 C.3     1  UNL1        0.2525
     19 O          10.5315   39.1483    8.8499 O.3     1  UNL1       -0.4717
     20 C           5.2969   41.2329    9.2397 C.ar    1  UNL1        0.0060
     21 C           5.8478   41.3230   10.5214 C.ar    1  UNL1       -0.0006
     22 C           5.0433   41.6788   11.6073 C.ar    1  UNL1        0.0144
     23 C           3.6787   41.9476   11.4223 C.ar    1  UNL1        0.0506
     24 C           3.1306   41.8532   10.1386 C.ar    1  UNL1        0.0144
     25 C           3.9333   41.4982    9.0510 C.ar    1  UNL1       -0.0006
     26 C           1.3877   42.3924   12.4894 C.2     1  UNL1        0.2669
     27 O           0.7444   42.0930   11.4484 O.2     1  UNL1       -0.2682
     28 N           2.8203   42.3073   12.5135 N.am    1  UNL1       -0.2791
     29 H           3.2598   42.5178   13.3689 H       1  UNL1        0.1552
     30 C           0.6712   42.8301   13.7023 C.ar    1  UNL1        0.1326
     31 C           0.8835   44.0374   14.3490 C.ar    1  UNL1        0.0398
     32 C          -0.0086   43.9767   15.4068 C.ar    1  UNL1        0.0806
     33 C          -0.1866   45.0356   16.4345 C.3     1  UNL1        0.0540
     34 C          -0.8044   40.8179   14.0160 C.3     1  UNL1        0.1539
     35 N          -0.7013   42.8233   15.3984 N.ar    1  UNL1       -0.1735
     36 N          -0.2817   42.1315   14.3559 N.ar    1  UNL1       -0.2447
@<TRIPOS>BOND
     1    18    19    1
     2    12    19    1
     3    13    14   ar
     4    11    13    1
     5    11    10    1
     6     4    10    1
     7     4     5    1
     8     4     1    1
     9     5     8    1
    10     6     8    1
    11     6     7    1
    12     7    10   am
    13     1     2    1
    14     1    20    1
    15    21    22   ar
    16    23    28    1
    17    23    24   ar
    18    26    30    1
    19    31    32   ar
    20    33    32    1
    21    34    36    1
    22    25    20   ar
    23    15    16   ar
    24    17    12   ar
    25    28    26   am
    26    36    35   ar
    27    36    30   ar
    28    12    13   ar
    29     7     9    2
    30    20    21   ar
    31    22    23   ar
    32    26    27    2
    33    30    31   ar
    34    32    35   ar
    35    24    25   ar
    36    14    15   ar
    37    16    17   ar
    38     2     3    1
    39    28    29    1
@<TRIPOS>MOLECULE
MolPort-019-935-295 67896704 CSSS00159303833 MCULE-5178677902 PubChem-56774757 ZINC000067896704 ZINC67896704
 36 39 0 0 0
SMALL
GASTEIGER

@<TRIPOS>ATOM
      1 C           6.1334   40.6712    8.1741 C.3     1  UNL1        0.1532
      2 O           5.3362   40.2938    7.0911 O.3     1  UNL1       -0.3783
      3 H           4.8181   41.0564    6.7897 H       1  UNL1        0.2109
      4 C           7.1514   41.7509    7.7792 C.3     1  UNL1        0.1362
      5 C           6.4071   43.0965    7.6433 C.3     1  UNL1        0.1653
      6 C           7.5621   44.2199    9.2163 C.3     1  UNL1        0.2272
      7 C           8.3631   43.0137    9.5836 C.2     1  UNL1        0.2562
      8 O           7.2773   44.1829    7.8396 O.3     1  UNL1       -0.3426
      9 O           9.1443   43.0416   10.5714 O.2     1  UNL1       -0.2721
     10 N           8.2423   41.8414    8.7647 N.am    1  UNL1       -0.2697
     11 C           9.3540   40.8964    8.6888 C.3     1  UNL1        0.1233
     12 C          11.0111   41.3565    6.7901 C.ar    1  UNL1        0.1363
     13 C           9.8216   40.7514    7.2726 C.ar    1  UNL1        0.0317
     14 C           9.0919   39.9009    6.4316 C.ar    1  UNL1        0.0004
     15 C           9.5281   39.6354    5.1333 C.ar    1  UNL1       -0.0001
     16 C          10.7090   40.2104    4.6658 C.ar    1  UNL1        0.0031
     17 C          11.4450   41.0619    5.4919 C.ar    1  UNL1        0.0366
     18 C          13.1978   42.1011    7.7268 C.3     1  UNL1        0.2525
     19 O          11.7980   42.2423    7.5392 O.3     1  UNL1       -0.4717
     20 C           5.2620   41.1269    9.3029 C.ar    1  UNL1        0.0060
     21 C           3.9397   41.4982    9.0417 C.ar    1  UNL1       -0.0006
     22 C           3.1140   41.9310   10.0828 C.ar    1  UNL1        0.0144
     23 C           3.6028   41.9976   11.3963 C.ar    1  UNL1        0.0506
     24 C           4.9275   41.6281   11.6529 C.ar    1  UNL1        0.0144
     25 C           5.7550   41.1943   10.6136 C.ar    1  UNL1       -0.0006
     26 C           1.3538   42.4551   12.5442 C.2     1  UNL1        0.2669
     27 O           0.6711   41.9995   11.5884 O.2     1  UNL1       -0.2682
     28 N           2.7880   42.4446   12.4886 N.am    1  UNL1       -0.2791
     29 H           3.2622   42.7794   13.2838 H       1  UNL1        0.1552
     30 C           0.6828   43.0013   13.7391 C.ar    1  UNL1        0.1326
     31 C           0.8972   44.2717   14.2501 C.ar    1  UNL1        0.0398
     32 C           0.0549   44.3033   15.3493 C.ar    1  UNL1        0.0806
     33 C          -0.1002   45.4579   16.2722 C.3     1  UNL1        0.0540
     34 C          -0.7326   41.0061   14.3226 C.3     1  UNL1        0.1539
     35 N          -0.6119   43.1432   15.4895 N.ar    1  UNL1       -0.1735
     36 N          -0.2242   42.3563   14.5036 N.ar    1  UNL1       -0.2447
@<TRIPOS>BOND
     1    18    19    1
     2    12    19    1
     3    13    14   ar
     4    11    13    1
     5    11    10    1
     6     4    10    1
     7     4     5    1
     8     4     1    1
     9     5     8    1
    10     6     8    1
    11     6     7    1
    12     7    10   am
    13     1     2    1
    14     1    20    1
    15    21    22   ar
    16    23    28    1
    17    23    24   ar
    18    26    30    1
    19    31    32   ar
    20    33    32    1
    21    34    36    1
    22    25    20   ar
    23    15    16   ar
    24    17    12   ar
    25    28    26   am
    26    36    35   ar
    27    36    30   ar
    28    12    13   ar
    29     7     9    2
    30    20    21   ar
    31    22    23   ar
    32    26    27    2
    33    30    31   ar
    34    32    35   ar
    35    24    25   ar
    36    14    15   ar
    37    16    17   ar
    38     2     3    1
    39    28    29    1
@<TRIPOS>MOLECULE
MolPort-019-935-295 67896704 CSSS00159303833 MCULE-5178677902 PubChem-56774757 ZINC000067896704 ZINC67896704
 36 39 0 0 0
SMALL
GASTEIGER

@<TRIPOS>ATOM
      1 C           6.1360   40.7191    8.3436 C.3     1  UNL1        0.1532
      2 O           5.4170   40.6371    7.1491 O.3     1  UNL1       -0.3783
      3 H           5.0810   41.5159    6.9130 H       1  UNL1        0.2109
      4 C           7.3682   41.6245    8.2024 C.3     1  UNL1        0.1362
      5 C           6.9783   43.0512    8.6443 C.3     1  UNL1        0.1653
      6 C           8.4641   43.2439   10.3252 C.3     1  UNL1        0.2272
      7 C           8.9567   41.8461   10.1379 C.2     1  UNL1        0.2562
      8 O           8.1024   43.7770    9.0751 O.3     1  UNL1       -0.3426
      9 O           9.7741   41.3417   10.9529 O.2     1  UNL1       -0.2721
     10 N           8.5005   41.1116    8.9925 N.am    1  UNL1       -0.2697
     11 C           9.3340   40.0470    8.4390 C.3     1  UNL1        0.1233
     12 C          10.3508   40.9438    6.2653 C.ar    1  UNL1        0.1363
     13 C          10.4640   40.6270    7.6441 C.ar    1  UNL1        0.0317
     14 C          11.6414   40.9521    8.3306 C.ar    1  UNL1        0.0004
     15 C          12.6947   41.5919    7.6770 C.ar    1  UNL1       -0.0001
     16 C          12.5759   41.9250    6.3284 C.ar    1  UNL1        0.0031
     17 C          11.4095   41.6049    5.6310 C.ar    1  UNL1        0.0366
     18 C           9.1158   39.4771    4.6726 C.3     1  UNL1        0.2525
     19 O           9.2296   40.6379    5.4816 O.3     1  UNL1       -0.4717
     20 C           5.2330   41.1906    9.4407 C.ar    1  UNL1        0.0060
     21 C           4.1747   42.0516    9.1353 C.ar    1  UNL1       -0.0006
     22 C           3.3252   42.5057   10.1479 C.ar    1  UNL1        0.0144
     23 C           3.5261   42.1036   11.4770 C.ar    1  UNL1        0.0506
     24 C           4.5882   41.2445   11.7788 C.ar    1  UNL1        0.0144
     25 C           5.4386   40.7885   10.7679 C.ar    1  UNL1       -0.0006
     26 C           1.2468   42.5046   12.5855 C.2     1  UNL1        0.2669
     27 O           0.5952   41.9832   11.6416 O.2     1  UNL1       -0.2682
     28 N           2.6806   42.5554   12.5436 N.am    1  UNL1       -0.2791
     29 H           3.1309   42.9409   13.3297 H       1  UNL1        0.1552
     30 C           0.5394   43.0657   13.7521 C.ar    1  UNL1        0.1326
     31 C           0.7453   44.3390   14.2595 C.ar    1  UNL1        0.0398
     32 C          -0.1337   44.3858   15.3289 C.ar    1  UNL1        0.0806
     33 C          -0.3119   45.5495   16.2363 C.3     1  UNL1        0.0540
     34 C          -0.9091   41.0853   14.3038 C.3     1  UNL1        0.1539
     35 N          -0.8130   43.2316   15.4561 N.ar    1  UNL1       -0.1735
     36 N          -0.3977   42.4335   14.4907 N.ar    1  UNL1       -0.2447
@<TRIPOS>BOND
     1    18    19    1
     2    12    19    1
     3    13    14   ar
     4    11    13    1
     5    11    10    1
     6     4    10    1
     7     4     5    1
     8     4     1    1
     9     5     8    1
    10     6     8    1
    11     6     7    1
    12     7    10   am
    13     1     2    1
    14     1    20    1
    15    21    22   ar
    16    23    28    1
    17    23    24   ar
    18    26    30    1
    19    31    32   ar
    20    33    32    1
    21    34    36    1
    22    25    20   ar
    23    15    16   ar
    24    17    12   ar
    25    28    26   am
    26    36    35   ar
    27    36    30   ar
    28    12    13   ar
    29     7     9    2
    30    20    21   ar
    31    22    23   ar
    32    26    27    2
    33    30    31   ar
    34    32    35   ar
    35    24    25   ar
    36    14    15   ar
    37    16    17   ar
    38     2     3    1
    39    28    29    1
@<TRIPOS>MOLECULE
MolPort-019-935-295 67896704 CSSS00159303833 MCULE-5178677902 PubChem-56774757 ZINC000067896704 ZINC67896704
 36 39 0 0 0
SMALL
GASTEIGER

@<TRIPOS>ATOM
      1 C           8.8236   40.7765    8.0280 C.3     1  UNL1        0.1532
      2 O           8.0757   39.6593    7.6493 O.3     1  UNL1       -0.3783
      3 H           8.0859   39.0054    8.3657 H       1  UNL1        0.2109
      4 C           8.2174   41.4753    9.2537 C.3     1  UNL1        0.1362
      5 C           9.3614   41.8333   10.2263 C.3     1  UNL1        0.1653
      6 C           9.0373   44.0616   10.2379 C.3     1  UNL1        0.2272
      7 C           7.9389   43.9734    9.2293 C.2     1  UNL1        0.2562
      8 O           9.0093   42.9151   11.0520 O.3     1  UNL1       -0.3426
      9 O           7.4353   45.0190    8.7394 O.2     1  UNL1       -0.2721
     10 N           7.4551   42.6732    8.8621 N.am    1  UNL1       -0.2697
     11 C           6.0825   42.5221    8.3848 C.3     1  UNL1        0.1233
     12 C           3.8298   42.6720    9.5954 C.ar    1  UNL1        0.1363
     13 C           5.1651   42.1969    9.5240 C.ar    1  UNL1        0.0317
     14 C           5.6324   41.3073   10.5005 C.ar    1  UNL1        0.0004
     15 C           4.7971   40.8772   11.5318 C.ar    1  UNL1       -0.0001
     16 C           3.4780   41.3246   11.5900 C.ar    1  UNL1        0.0031
     17 C           2.9995   42.2131   10.6251 C.ar    1  UNL1        0.0366
     18 C           3.9439   44.7385    8.2062 C.3     1  UNL1        0.2525
     19 O           3.2738   43.5832    8.6868 O.3     1  UNL1       -0.4717
     20 C          10.2425   40.3689    8.2762 C.ar    1  UNL1        0.0060
     21 C          10.5168   39.0680    8.7084 C.ar    1  UNL1       -0.0006
     22 C          11.8351   38.6722    8.9500 C.ar    1  UNL1        0.0144
     23 C          12.8932   39.5744    8.7622 C.ar    1  UNL1        0.0506
     24 C          12.6143   40.8763    8.3327 C.ar    1  UNL1        0.0144
     25 C          11.2967   41.2741    8.0898 C.ar    1  UNL1       -0.0006
     26 C          14.9279   39.1864   10.2769 C.2     1  UNL1        0.2669
     27 O          14.3057   39.4662   11.3361 O.2     1  UNL1       -0.2682
     28 N          14.2576   39.2071    9.0080 N.am    1  UNL1       -0.2791
     29 H          14.7904   38.9413    8.2239 H       1  UNL1        0.1552
     30 C          16.3576   38.8270   10.3311 C.ar    1  UNL1        0.1326
     31 C          16.8466   37.6098   10.7784 C.ar    1  UNL1        0.0398
     32 C          18.2161   37.7620   10.6378 C.ar    1  UNL1        0.0806
     33 C          19.2292   36.7321   10.9870 C.3     1  UNL1        0.0540
     34 C          17.3203   40.9717    9.4372 C.3     1  UNL1        0.1539
     35 N          18.5266   38.9754   10.1467 N.ar    1  UNL1       -0.1735
     36 N          17.3885   39.6171    9.9615 N.ar    1  UNL1       -0.2447
@<TRIPOS>BOND
     1    18    19    1
     2    12    19    1
     3    13    14   ar
     4    11    13    1
     5    11    10    1
     6     4    10    1
     7     4     5    1
     8     4     1    1
     9     5     8    1
    10     6     8    1
    11     6     7    1
    12     7    10   am
    13     1     2    1
    14     1    20    1
    15    21    22   ar
    16    23    28    1
    17    23    24   ar
    18    26    30    1
    19    31    32   ar
    20    33    32    1
    21    34    36    1
    22    25    20   ar
    23    15    16   ar
    24    17    12   ar
    25    28    26   am
    26    36    35   ar
    27    36    30   ar
    28    12    13   ar
    29     7     9    2
    30    20    21   ar
    31    22    23   ar
    32    26    27    2
    33    30    31   ar
    34    32    35   ar
    35    24    25   ar
    36    14    15   ar
    37    16    17   ar
    38     2     3    1
    39    28    29    1
@<TRIPOS>MOLECULE
MolPort-019-935-295 67896704 CSSS00159303833 MCULE-5178677902 PubChem-56774757 ZINC000067896704 ZINC67896704
 36 39 0 0 0
SMALL
GASTEIGER

@<TRIPOS>ATOM
      1 C          16.0115   38.4472   11.3105 C.3     1  UNL1        0.1532
      2 O          15.5459   37.2105   11.7627 O.3     1  UNL1       -0.3783
      3 H          15.1566   36.7208   11.0214 H       1  UNL1        0.2109
      4 C          17.1294   38.2859   10.2702 C.3     1  UNL1        0.1362
      5 C          18.4840   38.5347   10.9675 C.3     1  UNL1        0.1653
      6 C          19.3905   36.5151   10.5556 C.3     1  UNL1        0.2272
      7 C          18.1440   36.0159    9.9009 C.2     1  UNL1        0.2562
      8 O          19.5328   37.8888   10.2901 O.3     1  UNL1       -0.3426
      9 O          18.0411   34.8078    9.5591 O.2     1  UNL1       -0.2721
     10 N          17.0878   36.9531    9.6447 N.am    1  UNL1       -0.2697
     11 C          16.1566   36.7083    8.5459 C.3     1  UNL1        0.1233
     12 C          14.2867   35.1729    9.3882 C.ar    1  UNL1        0.1363
     13 C          15.5111   35.3644    8.6967 C.ar    1  UNL1        0.0317
     14 C          16.1068   34.2803    8.0385 C.ar    1  UNL1        0.0004
     15 C          15.5042   33.0222    8.0470 C.ar    1  UNL1       -0.0001
     16 C          14.2895   32.8379    8.7060 C.ar    1  UNL1        0.0031
     17 C          13.6857   33.9086    9.3682 C.ar    1  UNL1        0.0366
     18 C          12.2400   36.1579   10.4149 C.3     1  UNL1        0.2525
     19 O          13.6238   36.1824   10.0999 O.3     1  UNL1       -0.4717
     20 C          14.8675   39.2445   10.7656 C.ar    1  UNL1        0.0060
     21 C          15.0206   39.9233    9.5531 C.ar    1  UNL1       -0.0006
     22 C          13.9648   40.6765    9.0326 C.ar    1  UNL1        0.0144
     23 C          12.7446   40.7591    9.7202 C.ar    1  UNL1        0.0506
     24 C          12.5965   40.0810   10.9349 C.ar    1  UNL1        0.0144
     25 C          13.6507   39.3266   11.4571 C.ar    1  UNL1       -0.0006
     26 C          10.2510   41.3284    9.5135 C.2     1  UNL1        0.2669
     27 O           9.8868   40.4290   10.3170 O.2     1  UNL1       -0.2682
     28 N          11.6419   41.5288    9.2217 N.am    1  UNL1       -0.2791
     29 H          11.8622   42.2728    8.6157 H       1  UNL1        0.1552
     30 C           9.2467   42.1932    8.8655 C.ar    1  UNL1        0.1326
     31 C           8.5982   41.8927    7.6781 C.ar    1  UNL1        0.0398
     32 C           7.7760   42.9920    7.4940 C.ar    1  UNL1        0.0806
     33 C           6.8525   43.1838    6.3453 C.3     1  UNL1        0.0540
     34 C           9.2390   44.0769   10.5318 C.3     1  UNL1        0.1539
     35 N           7.9199   43.8842    8.4907 N.ar    1  UNL1       -0.1735
     36 N           8.8168   43.3890    9.3224 N.ar    1  UNL1       -0.2447
@<TRIPOS>BOND
     1    18    19    1
     2    12    19    1
     3    13    14   ar
     4    11    13    1
     5    11    10    1
     6     4    10    1
     7     4     5    1
     8     4     1    1
     9     5     8    1
    10     6     8    1
    11     6     7    1
    12     7    10   am
    13     1     2    1
    14     1    20    1
    15    21    22   ar
    16    23    28    1
    17    23    24   ar
    18    26    30    1
    19    31    32   ar
    20    33    32    1
    21    34    36    1
    22    25    20   ar
    23    15    16   ar
    24    17    12   ar
    25    28    26   am
    26    36    35   ar
    27    36    30   ar
    28    12    13   ar
    29     7     9    2
    30    20    21   ar
    31    22    23   ar
    32    26    27    2
    33    30    31   ar
    34    32    35   ar
    35    24    25   ar
    36    14    15   ar
    37    16    17   ar
    38     2     3    1
    39    28    29    1
