@<TRIPOS>MOLECULE
MolPort-003-022-299 CSSS01006092655 LN01393284 MCULE-4198873419 PubChem-4094527
 33 37 0 0 0
SMALL
GASTEIGER

@<TRIPOS>ATOM
      1 C          10.1475   41.1743    8.7699 C.ar    1  UNL1        0.1657
      2 C           8.9960   41.5228   10.6733 C.ar    1  UNL1        0.0923
      3 C           7.9571   41.6932    9.7392 C.ar    1  UNL1        0.0886
      4 N          10.2058   41.2341   10.1168 N.ar    1  UNL1       -0.2238
      5 S           8.6026   41.4699    8.1961 S.2     1  UNL1       -0.0482
      6 C           8.8689   41.6839   12.1379 C.ar    1  UNL1        0.0183
      7 C           8.2398   42.8252   12.6558 C.ar    1  UNL1        0.0015
      8 C           8.0759   42.9801   14.0353 C.ar    1  UNL1        0.0000
      9 C           8.5308   41.9890   14.9088 C.ar    1  UNL1        0.0000
     10 C           9.1437   40.8407   14.4026 C.ar    1  UNL1        0.0000
     11 C           9.3065   40.6868   13.0233 C.ar    1  UNL1        0.0015
     12 O          12.4019   42.9211    8.2724 O.2     1  UNL1       -0.2707
     13 C          12.3421   41.8130    7.6731 C.2     1  UNL1        0.2717
     14 N          11.2706   40.8999    7.9280 N.am    1  UNL1       -0.2611
     15 H          11.3092   40.0181    7.4919 H       1  UNL1        0.1569
     16 O          15.1769   40.7286    8.2786 O.3     1  UNL1       -0.4679
     17 O          14.2555   42.5370    6.3962 O.3     1  UNL1       -0.4630
     18 C          13.4235   41.4155    6.7184 C.3     1  UNL1        0.2846
     19 C          14.2545   40.2596    7.2928 C.3     1  UNL1        0.2583
     20 C          15.8415   41.9464    8.1208 C.ar    1  UNL1        0.1724
     21 C          16.9443   42.2646    8.9177 C.ar    1  UNL1        0.0400
     22 C          17.6084   43.4817    8.7309 C.ar    1  UNL1        0.0033
     23 C          17.1684   44.3791    7.7505 C.ar    1  UNL1        0.0033
     24 C          16.0568   44.0656    6.9609 C.ar    1  UNL1        0.0401
     25 C          15.3878   42.8537    7.1533 C.ar    1  UNL1        0.1729
     26 O           5.9717   41.0567   10.8480 O.2     1  UNL1       -0.2860
     27 C           6.5114   41.8361   10.0160 C.2     1  UNL1        0.2030
     28 C           5.6742   42.8390    9.3195 C.ar    1  UNL1        0.0395
     29 C           6.2742   43.7800    8.4681 C.ar    1  UNL1        0.0032
     30 C           5.4953   44.7199    7.7871 C.ar    1  UNL1        0.0001
     31 C           4.1074   44.7229    7.9452 C.ar    1  UNL1        0.0000
     32 C           3.4986   43.7856    8.7836 C.ar    1  UNL1        0.0001
     33 C           4.2783   42.8465    9.4649 C.ar    1  UNL1        0.0032
@<TRIPOS>BOND
     1    13    14   am
     2     1     5   ar
     3     2     4   ar
     4     2     6    1
     5     3     5   ar
     6     3    27    1
     7    27    28    1
     8    29    30   ar
     9    31    32   ar
    10    33    28   ar
    11     7     8   ar
    12     9    10   ar
    13    11     6   ar
    14    18    13    1
    15    18    19    1
    16    18    17    1
    17    19    16    1
    18    20    16    1
    19    21    22   ar
    20    23    24   ar
    21    25    17    1
    22    25    20   ar
    23    14     1    1
    24    13    12    2
    25     1     4   ar
    26     2     3   ar
    27    27    26    2
    28    28    29   ar
    29    30    31   ar
    30    32    33   ar
    31     6     7   ar
    32     8     9   ar
    33    10    11   ar
    34    20    21   ar
    35    22    23   ar
    36    24    25   ar
    37    14    15    1
@<TRIPOS>MOLECULE
MolPort-003-022-299 CSSS01006092655 LN01393284 MCULE-4198873419 PubChem-4094527
 33 37 0 0 0
SMALL
GASTEIGER

@<TRIPOS>ATOM
      1 C           9.4910   40.8137    9.1886 C.ar    1  UNL1        0.1657
      2 C          10.4485   39.7636    7.4421 C.ar    1  UNL1        0.0923
      3 C          11.5137   39.7052    8.3601 C.ar    1  UNL1        0.0886
      4 N           9.3323   40.3821    7.9199 N.ar    1  UNL1       -0.2238
      5 S          11.0120   40.4520    9.7878 S.2     1  UNL1       -0.0482
      6 C          10.4875   39.2686    6.0490 C.ar    1  UNL1        0.0183
      7 C           9.6604   38.2009    5.6713 C.ar    1  UNL1        0.0015
      8 C           9.6541   37.7414    4.3512 C.ar    1  UNL1        0.0000
      9 C          10.4680   38.3532    3.3944 C.ar    1  UNL1        0.0000
     10 C          11.2831   39.4280    3.7561 C.ar    1  UNL1        0.0000
     11 C          11.2880   39.8867    5.0761 C.ar    1  UNL1        0.0015
     12 O           8.1845   43.2879    8.4449 O.2     1  UNL1       -0.2707
     13 C           7.8992   42.7534    9.5510 C.2     1  UNL1        0.2717
     14 N           8.4855   41.5058    9.9340 N.am    1  UNL1       -0.2611
     15 H           8.1740   41.0934   10.7719 H       1  UNL1        0.1569
     16 O           6.1421   41.4582   11.7451 O.3     1  UNL1       -0.4679
     17 O           5.5998   43.4115    9.8601 O.3     1  UNL1       -0.4630
     18 C           6.9007   43.3964   10.4612 C.3     1  UNL1        0.2846
     19 C           6.8713   42.6850   11.8212 C.3     1  UNL1        0.2583
     20 C           4.9846   41.3557   10.9708 C.ar    1  UNL1        0.1724
     21 C           4.1190   40.2696   11.1239 C.ar    1  UNL1        0.0400
     22 C           2.9545   40.1951   10.3523 C.ar    1  UNL1        0.0033
     23 C           2.6582   41.2041    9.4281 C.ar    1  UNL1        0.0033
     24 C           3.5311   42.2854    9.2663 C.ar    1  UNL1        0.0401
     25 C           4.6991   42.3555   10.0306 C.ar    1  UNL1        0.1729
     26 O          13.7126   39.4605    7.5346 O.2     1  UNL1       -0.2860
     27 C          12.7822   38.9576    8.2218 C.2     1  UNL1        0.2030
     28 C          12.9775   37.6234    8.8330 C.ar    1  UNL1        0.0395
     29 C          14.1697   36.9183    8.6052 C.ar    1  UNL1        0.0032
     30 C          14.3779   35.6668    9.1922 C.ar    1  UNL1        0.0001
     31 C          13.3985   35.1117   10.0191 C.ar    1  UNL1        0.0000
     32 C          12.2115   35.8083   10.2595 C.ar    1  UNL1        0.0001
     33 C          12.0037   37.0594    9.6716 C.ar    1  UNL1        0.0032
@<TRIPOS>BOND
     1    13    14   am
     2     1     5   ar
     3     2     4   ar
     4     2     6    1
     5     3     5   ar
     6     3    27    1
     7    27    28    1
     8    29    30   ar
     9    31    32   ar
    10    33    28   ar
    11     7     8   ar
    12     9    10   ar
    13    11     6   ar
    14    18    13    1
    15    18    19    1
    16    18    17    1
    17    19    16    1
    18    20    16    1
    19    21    22   ar
    20    23    24   ar
    21    25    17    1
    22    25    20   ar
    23    14     1    1
    24    13    12    2
    25     1     4   ar
    26     2     3   ar
    27    27    26    2
    28    28    29   ar
    29    30    31   ar
    30    32    33   ar
    31     6     7   ar
    32     8     9   ar
    33    10    11   ar
    34    20    21   ar
    35    22    23   ar
    36    24    25   ar
    37    14    15    1
@<TRIPOS>MOLECULE
MolPort-003-022-299 CSSS01006092655 LN01393284 MCULE-4198873419 PubChem-4094527
 33 37 0 0 0
SMALL
GASTEIGER

@<TRIPOS>ATOM
      1 C          10.0629   41.3150    8.5851 C.ar    1  UNL1        0.1657
      2 C          10.6996   39.8160    7.0303 C.ar    1  UNL1        0.0923
      3 C          11.7318   39.6293    7.9687 C.ar    1  UNL1        0.0886
      4 N           9.7808   40.7557    7.3898 N.ar    1  UNL1       -0.2238
      5 S          11.4556   40.6779    9.2617 S.2     1  UNL1       -0.0482
      6 C          10.5910   39.1286    5.7253 C.ar    1  UNL1        0.0183
      7 C           9.6601   38.0922    5.5651 C.ar    1  UNL1        0.0015
      8 C           9.5149   37.4539    4.3300 C.ar    1  UNL1        0.0000
      9 C          10.2929   37.8544    3.2407 C.ar    1  UNL1        0.0000
     10 C          11.2112   38.8966    3.3849 C.ar    1  UNL1        0.0000
     11 C          11.3550   39.5342    4.6201 C.ar    1  UNL1        0.0015
     12 O          11.0106   43.8574    9.5948 O.2     1  UNL1       -0.2707
     13 C           9.7921   43.5610    9.7293 C.2     1  UNL1        0.2717
     14 N           9.2739   42.3367    9.2008 N.am    1  UNL1       -0.2611
     15 H           8.3031   42.1865    9.2658 H       1  UNL1        0.1569
     16 O           7.0079   43.0154   10.9659 O.3     1  UNL1       -0.4679
     17 O           7.9747   45.1218    9.4523 O.3     1  UNL1       -0.4630
     18 C           8.8568   44.5142   10.4044 C.3     1  UNL1        0.2846
     19 C           8.0671   43.8039   11.5127 C.3     1  UNL1        0.2583
     20 C           6.2658   43.4659    9.8723 C.ar    1  UNL1        0.1724
     21 C           5.0609   42.8489    9.5262 C.ar    1  UNL1        0.0400
     22 C           4.3225   43.3275    8.4386 C.ar    1  UNL1        0.0033
     23 C           4.7902   44.4196    7.6978 C.ar    1  UNL1        0.0033
     24 C           6.0026   45.0296    8.0371 C.ar    1  UNL1        0.0401
     25 C           6.7449   44.5460    9.1180 C.ar    1  UNL1        0.1729
     26 O          13.1937   38.1419    6.8611 O.2     1  UNL1       -0.2860
     27 C          12.7716   38.5777    7.9669 C.2     1  UNL1        0.2030
     28 C          13.3024   37.9966    9.2208 C.ar    1  UNL1        0.0395
     29 C          14.1513   38.7581   10.0393 C.ar    1  UNL1        0.0032
     30 C          14.6439   38.2311   11.2366 C.ar    1  UNL1        0.0001
     31 C          14.2859   36.9398   11.6310 C.ar    1  UNL1        0.0000
     32 C          13.4348   36.1759   10.8283 C.ar    1  UNL1        0.0001
     33 C          12.9432   36.7032    9.6307 C.ar    1  UNL1        0.0032
@<TRIPOS>BOND
     1    13    14   am
     2     1     5   ar
     3     2     4   ar
     4     2     6    1
     5     3     5   ar
     6     3    27    1
     7    27    28    1
     8    29    30   ar
     9    31    32   ar
    10    33    28   ar
    11     7     8   ar
    12     9    10   ar
    13    11     6   ar
    14    18    13    1
    15    18    19    1
    16    18    17    1
    17    19    16    1
    18    20    16    1
    19    21    22   ar
    20    23    24   ar
    21    25    17    1
    22    25    20   ar
    23    14     1    1
    24    13    12    2
    25     1     4   ar
    26     2     3   ar
    27    27    26    2
    28    28    29   ar
    29    30    31   ar
    30    32    33   ar
    31     6     7   ar
    32     8     9   ar
    33    10    11   ar
    34    20    21   ar
    35    22    23   ar
    36    24    25   ar
    37    14    15    1
@<TRIPOS>MOLECULE
MolPort-003-022-299 CSSS01006092655 LN01393284 MCULE-4198873419 PubChem-4094527
 33 37 0 0 0
SMALL
GASTEIGER

@<TRIPOS>ATOM
      1 C           9.2575   41.3157    8.4910 C.ar    1  UNL1        0.1657
      2 C           8.8796   41.2862   10.7105 C.ar    1  UNL1        0.0923
      3 C           7.5610   41.4677   10.2532 C.ar    1  UNL1        0.0886
      4 N           9.8090   41.2029    9.7175 N.ar    1  UNL1       -0.2238
      5 S           7.5974   41.5196    8.5669 S.2     1  UNL1       -0.0482
      6 C           9.2977   41.2381   12.1283 C.ar    1  UNL1        0.0183
      7 C           8.3233   41.2356   13.1367 C.ar    1  UNL1        0.0015
      8 C           8.6949   41.1532   14.4817 C.ar    1  UNL1        0.0000
      9 C          10.0451   41.0619   14.8294 C.ar    1  UNL1        0.0000
     10 C          11.0228   41.0467   13.8322 C.ar    1  UNL1        0.0000
     11 C          10.6498   41.1286   12.4880 C.ar    1  UNL1        0.0015
     12 O          11.9192   40.2387    8.1207 O.2     1  UNL1       -0.2707
     13 C          11.3341   40.7752    7.1407 C.2     1  UNL1        0.2717
     14 N           9.9997   41.2751    7.2691 N.am    1  UNL1       -0.2611
     15 H           9.5602   41.6162    6.4569 H       1  UNL1        0.1569
     16 O          10.0914   41.1954    4.3375 O.3     1  UNL1       -0.4679
     17 O          12.1334   39.5499    5.2235 O.3     1  UNL1       -0.4630
     18 C          12.0136   40.8521    5.8098 C.3     1  UNL1        0.2846
     19 C          11.2642   41.8111    4.8742 C.3     1  UNL1        0.2583
     20 C          10.0897   39.8485    3.9694 C.ar    1  UNL1        0.1724
     21 C           9.0593   39.3260    3.1837 C.ar    1  UNL1        0.0400
     22 C           9.0859   37.9783    2.8093 C.ar    1  UNL1        0.0033
     23 C          10.1403   37.1550    3.2224 C.ar    1  UNL1        0.0033
     24 C          11.1658   37.6755    4.0191 C.ar    1  UNL1        0.0401
     25 C          11.1348   39.0196    4.4007 C.ar    1  UNL1        0.1729
     26 O           6.3955   41.1880   12.2878 O.2     1  UNL1       -0.2860
     27 C           6.3164   41.4193   11.0504 C.2     1  UNL1        0.2030
     28 C           4.9820   41.5962   10.4340 C.ar    1  UNL1        0.0395
     29 C           4.6573   42.8093    9.8068 C.ar    1  UNL1        0.0032
     30 C           3.4093   42.9843    9.2020 C.ar    1  UNL1        0.0001
     31 C           2.4765   41.9447    9.2119 C.ar    1  UNL1        0.0000
     32 C           2.7920   40.7300    9.8259 C.ar    1  UNL1        0.0001
     33 C           4.0399   40.5559   10.4312 C.ar    1  UNL1        0.0032
@<TRIPOS>BOND
     1    13    14   am
     2     1     5   ar
     3     2     4   ar
     4     2     6    1
     5     3     5   ar
     6     3    27    1
     7    27    28    1
     8    29    30   ar
     9    31    32   ar
    10    33    28   ar
    11     7     8   ar
    12     9    10   ar
    13    11     6   ar
    14    18    13    1
    15    18    19    1
    16    18    17    1
    17    19    16    1
    18    20    16    1
    19    21    22   ar
    20    23    24   ar
    21    25    17    1
    22    25    20   ar
    23    14     1    1
    24    13    12    2
    25     1     4   ar
    26     2     3   ar
    27    27    26    2
    28    28    29   ar
    29    30    31   ar
    30    32    33   ar
    31     6     7   ar
    32     8     9   ar
    33    10    11   ar
    34    20    21   ar
    35    22    23   ar
    36    24    25   ar
    37    14    15    1
@<TRIPOS>MOLECULE
MolPort-003-022-299 CSSS01006092655 LN01393284 MCULE-4198873419 PubChem-4094527
 33 37 0 0 0
SMALL
GASTEIGER

@<TRIPOS>ATOM
      1 C           9.2033   41.4777    8.0973 C.ar    1  UNL1        0.1657
      2 C           7.2132   41.8269    9.0910 C.ar    1  UNL1        0.0923
      3 C           7.9721   41.4545   10.2163 C.ar    1  UNL1        0.0886
      4 N           7.9139   41.8352    7.9224 N.ar    1  UNL1       -0.2238
      5 S           9.5470   41.1373    9.7002 S.2     1  UNL1       -0.0482
      6 C           5.7676   42.1392    9.0953 C.ar    1  UNL1        0.0183
      7 C           4.8407   41.1191    9.3538 C.ar    1  UNL1        0.0015
      8 C           3.4720   41.3993    9.3993 C.ar    1  UNL1        0.0000
      9 C           3.0191   42.7055    9.1968 C.ar    1  UNL1        0.0000
     10 C           3.9348   43.7319    8.9551 C.ar    1  UNL1        0.0000
     11 C           5.3028   43.4504    8.9104 C.ar    1  UNL1        0.0015
     12 O          11.7159   42.9054    7.9236 O.2     1  UNL1       -0.2707
     13 C          11.3734   42.1511    6.9727 C.2     1  UNL1        0.2717
     14 N          10.1637   41.3903    7.0411 N.am    1  UNL1       -0.2611
     15 H           9.9788   40.7604    6.3074 H       1  UNL1        0.1569
     16 O          14.3506   41.3170    6.8359 O.3     1  UNL1       -0.4679
     17 O          12.9084   43.2427    5.4667 O.3     1  UNL1       -0.4630
     18 C          12.2573   42.0037    5.7744 C.3     1  UNL1        0.2846
     19 C          13.2820   40.8816    5.9926 C.3     1  UNL1        0.2583
     20 C          14.8657   42.6109    6.7351 C.ar    1  UNL1        0.1724
     21 C          16.0823   42.9423    7.3370 C.ar    1  UNL1        0.0400
     22 C          16.5908   44.2392    7.2082 C.ar    1  UNL1        0.0033
     23 C          15.8821   45.2027    6.4806 C.ar    1  UNL1        0.0033
     24 C          14.6581   44.8741    5.8880 C.ar    1  UNL1        0.0401
     25 C          14.1455   43.5811    6.0242 C.ar    1  UNL1        0.1729
     26 O           6.3678   41.7948   11.9154 O.2     1  UNL1       -0.2860
     27 C           7.5659   41.5155   11.6370 C.2     1  UNL1        0.2030
     28 C           8.5298   41.2962   12.7390 C.ar    1  UNL1        0.0395
     29 C           9.9077   41.2887   12.4710 C.ar    1  UNL1        0.0032
     30 C          10.8312   41.1039   13.5040 C.ar    1  UNL1        0.0001
     31 C          10.3856   40.9324   14.8167 C.ar    1  UNL1        0.0000
     32 C           9.0168   40.9464   15.0964 C.ar    1  UNL1        0.0001
     33 C           8.0938   41.1306   14.0628 C.ar    1  UNL1        0.0032
@<TRIPOS>BOND
     1    13    14   am
     2     1     5   ar
     3     2     4   ar
     4     2     6    1
     5     3     5   ar
     6     3    27    1
     7    27    28    1
     8    29    30   ar
     9    31    32   ar
    10    33    28   ar
    11     7     8   ar
    12     9    10   ar
    13    11     6   ar
    14    18    13    1
    15    18    19    1
    16    18    17    1
    17    19    16    1
    18    20    16    1
    19    21    22   ar
    20    23    24   ar
    21    25    17    1
    22    25    20   ar
    23    14     1    1
    24    13    12    2
    25     1     4   ar
    26     2     3   ar
    27    27    26    2
    28    28    29   ar
    29    30    31   ar
    30    32    33   ar
    31     6     7   ar
    32     8     9   ar
    33    10    11   ar
    34    20    21   ar
    35    22    23   ar
    36    24    25   ar
    37    14    15    1
@<TRIPOS>MOLECULE
MolPort-003-022-299 CSSS01006092655 LN01393284 MCULE-4198873419 PubChem-4094527
 33 37 0 0 0
SMALL
GASTEIGER

@<TRIPOS>ATOM
      1 C           3.8259   41.5302   11.6256 C.ar    1  UNL1        0.1657
      2 C           5.9650   41.7049   10.9445 C.ar    1  UNL1        0.0923
      3 C           5.3115   42.0651    9.7511 C.ar    1  UNL1        0.0886
      4 N           5.1238   41.4119   11.9757 N.ar    1  UNL1       -0.2238
      5 S           3.6483   42.0055   10.0300 S.2     1  UNL1       -0.0482
      6 C           7.4284   41.5802   11.1181 C.ar    1  UNL1        0.0183
      7 C           7.9630   41.4516   12.4081 C.ar    1  UNL1        0.0015
      8 C           9.3397   41.2954   12.5928 C.ar    1  UNL1        0.0000
      9 C          10.1931   41.2558   11.4872 C.ar    1  UNL1        0.0000
     10 C           9.6694   41.3661   10.1973 C.ar    1  UNL1        0.0000
     11 C           8.2928   41.5218   10.0140 C.ar    1  UNL1        0.0015
     12 O           1.7017   43.3694   12.3231 O.2     1  UNL1       -0.2707
     13 C           1.7251   42.2289   12.8608 C.2     1  UNL1        0.2717
     14 N           2.7290   41.2731   12.5066 N.am    1  UNL1       -0.2611
     15 H           2.6598   40.3724   12.8981 H       1  UNL1        0.1569
     16 O          -0.9773   43.6099   13.4680 O.3     1  UNL1       -0.4679
     17 O           0.9135   42.4462   15.1213 O.3     1  UNL1       -0.4630
     18 C           0.6679   41.8405   13.8459 C.3     1  UNL1        0.2846
     19 C          -0.7254   42.2110   13.3188 C.3     1  UNL1        0.2583
     20 C          -0.5420   44.3030   14.5993 C.ar    1  UNL1        0.1724
     21 C          -1.0330   45.5794   14.8855 C.ar    1  UNL1        0.0400
     22 C          -0.5989   46.2494   16.0344 C.ar    1  UNL1        0.0033
     23 C           0.3262   45.6442   16.8934 C.ar    1  UNL1        0.0033
     24 C           0.8268   44.3711   16.6004 C.ar    1  UNL1        0.0401
     25 C           0.4001   43.7053   15.4481 C.ar    1  UNL1        0.1729
     26 O           5.7794   43.8302    8.2538 O.2     1  UNL1       -0.2860
     27 C           5.9223   42.6050    8.5172 C.2     1  UNL1        0.2030
     28 C           6.6619   41.7446    7.5662 C.ar    1  UNL1        0.0395
     29 C           6.1758   40.4641    7.2589 C.ar    1  UNL1        0.0032
     30 C           6.8513   39.6479    6.3470 C.ar    1  UNL1        0.0001
     31 C           8.0159   40.1078    5.7276 C.ar    1  UNL1        0.0000
     32 C           8.5043   41.3838    6.0196 C.ar    1  UNL1        0.0001
     33 C           7.8286   42.1991    6.9321 C.ar    1  UNL1        0.0032
@<TRIPOS>BOND
     1    13    14   am
     2     1     5   ar
     3     2     4   ar
     4     2     6    1
     5     3     5   ar
     6     3    27    1
     7    27    28    1
     8    29    30   ar
     9    31    32   ar
    10    33    28   ar
    11     7     8   ar
    12     9    10   ar
    13    11     6   ar
    14    18    13    1
    15    18    19    1
    16    18    17    1
    17    19    16    1
    18    20    16    1
    19    21    22   ar
    20    23    24   ar
    21    25    17    1
    22    25    20   ar
    23    14     1    1
    24    13    12    2
    25     1     4   ar
    26     2     3   ar
    27    27    26    2
    28    28    29   ar
    29    30    31   ar
    30    32    33   ar
    31     6     7   ar
    32     8     9   ar
    33    10    11   ar
    34    20    21   ar
    35    22    23   ar
    36    24    25   ar
    37    14    15    1
@<TRIPOS>MOLECULE
MolPort-003-022-299 CSSS01006092655 LN01393284 MCULE-4198873419 PubChem-4094527
 33 37 0 0 0
SMALL
GASTEIGER

@<TRIPOS>ATOM
      1 C          11.2970   41.2510    6.8383 C.ar    1  UNL1        0.1657
      2 C          13.4038   42.0125    7.0647 C.ar    1  UNL1        0.0923
      3 C          13.4227   40.9880    8.0295 C.ar    1  UNL1        0.0886
      4 N          12.2149   42.1436    6.4120 N.ar    1  UNL1       -0.2238
      5 S          11.9039   40.2525    8.0374 S.2     1  UNL1       -0.0482
      6 C          14.5198   42.9383    6.7734 C.ar    1  UNL1        0.0183
      7 C          14.2849   44.0812    5.9956 C.ar    1  UNL1        0.0015
      8 C          15.3166   44.9887    5.7390 C.ar    1  UNL1        0.0000
      9 C          16.5907   44.7662    6.2676 C.ar    1  UNL1        0.0000
     10 C          16.8313   43.6398    7.0574 C.ar    1  UNL1        0.0000
     11 C          15.7988   42.7336    7.3135 C.ar    1  UNL1        0.0015
     12 O           8.8967   42.2076    8.1440 O.2     1  UNL1       -0.2707
     13 C           8.7957   41.6136    7.0361 C.2     1  UNL1        0.2717
     14 N           9.9609   41.1693    6.3348 N.am    1  UNL1       -0.2611
     15 H           9.8336   40.7787    5.4401 H       1  UNL1        0.1569
     16 O           6.3498   43.5098    7.0057 O.3     1  UNL1       -0.4679
     17 O           6.5564   40.7688    7.3328 O.3     1  UNL1       -0.4630
     18 C           7.4507   41.4081    6.4133 C.3     1  UNL1        0.2846
     19 C           6.8733   42.7421    5.9198 C.3     1  UNL1        0.2583
     20 C           5.6695   42.8959    8.0592 C.ar    1  UNL1        0.1724
     21 C           4.9116   43.6538    8.9556 C.ar    1  UNL1        0.0400
     22 C           4.2216   43.0176    9.9931 C.ar    1  UNL1        0.0033
     23 C           4.2919   41.6265   10.1344 C.ar    1  UNL1        0.0033
     24 C           5.0605   40.8691    9.2439 C.ar    1  UNL1        0.0401
     25 C           5.7571   41.5053    8.2128 C.ar    1  UNL1        0.1729
     26 O          15.7148   41.0206    8.5967 O.2     1  UNL1       -0.2860
     27 C          14.5918   40.4749    8.7758 C.2     1  UNL1        0.2030
     28 C          14.4903   39.3191    9.6954 C.ar    1  UNL1        0.0395
     29 C          14.1634   39.5263   11.0447 C.ar    1  UNL1        0.0032
     30 C          14.0433   38.4437   11.9208 C.ar    1  UNL1        0.0001
     31 C          14.2415   37.1422   11.4538 C.ar    1  UNL1        0.0000
     32 C          14.5590   36.9235   10.1109 C.ar    1  UNL1        0.0001
     33 C          14.6797   38.0066    9.2356 C.ar    1  UNL1        0.0032
@<TRIPOS>BOND
     1    13    14   am
     2     1     5   ar
     3     2     4   ar
     4     2     6    1
     5     3     5   ar
     6     3    27    1
     7    27    28    1
     8    29    30   ar
     9    31    32   ar
    10    33    28   ar
    11     7     8   ar
    12     9    10   ar
    13    11     6   ar
    14    18    13    1
    15    18    19    1
    16    18    17    1
    17    19    16    1
    18    20    16    1
    19    21    22   ar
    20    23    24   ar
    21    25    17    1
    22    25    20   ar
    23    14     1    1
    24    13    12    2
    25     1     4   ar
    26     2     3   ar
    27    27    26    2
    28    28    29   ar
    29    30    31   ar
    30    32    33   ar
    31     6     7   ar
    32     8     9   ar
    33    10    11   ar
    34    20    21   ar
    35    22    23   ar
    36    24    25   ar
    37    14    15    1
@<TRIPOS>MOLECULE
MolPort-003-022-299 CSSS01006092655 LN01393284 MCULE-4198873419 PubChem-4094527
 33 37 0 0 0
SMALL
GASTEIGER

@<TRIPOS>ATOM
      1 C          11.4348   41.3225    9.5436 C.ar    1  UNL1        0.1657
      2 C          13.2257   40.0230    9.9607 C.ar    1  UNL1        0.0923
      3 C          13.7889   40.8964    9.0117 C.ar    1  UNL1        0.0886
      4 N          11.9171   40.2752   10.2448 N.ar    1  UNL1       -0.2238
      5 S          12.5961   41.9935    8.5415 S.2     1  UNL1       -0.0482
      6 C          13.9177   38.8780   10.5911 C.ar    1  UNL1        0.0183
      7 C          14.9462   39.1151   11.5145 C.ar    1  UNL1        0.0015
      8 C          15.5885   38.0485   12.1499 C.ar    1  UNL1        0.0000
      9 C          15.2002   36.7349   11.8747 C.ar    1  UNL1        0.0000
     10 C          14.1659   36.4882   10.9693 C.ar    1  UNL1        0.0000
     11 C          13.5242   37.5555   10.3352 C.ar    1  UNL1        0.0015
     12 O          10.5765   43.8711   10.6156 O.2     1  UNL1       -0.2707
     13 C           9.7060   43.0502   10.2172 C.2     1  UNL1        0.2717
     14 N          10.0900   41.8007    9.6357 N.am    1  UNL1       -0.2611
     15 H           9.3763   41.2281    9.2723 H       1  UNL1        0.1569
     16 O           7.2416   41.2753    9.6211 O.3     1  UNL1       -0.4679
     17 O           7.7825   43.9315    9.0600 O.3     1  UNL1       -0.4630
     18 C           8.2525   43.3951   10.3030 C.3     1  UNL1        0.2846
     19 C           7.4290   42.1687   10.7208 C.3     1  UNL1        0.2583
     20 C           7.0152   41.7593    8.3310 C.ar    1  UNL1        0.1724
     21 C           6.5446   40.9119    7.3246 C.ar    1  UNL1        0.0400
     22 C           6.3058   41.4205    6.0434 C.ar    1  UNL1        0.0033
     23 C           6.5395   42.7735    5.7697 C.ar    1  UNL1        0.0033
     24 C           7.0221   43.6191    6.7742 C.ar    1  UNL1        0.0401
     25 C           7.2693   43.1093    8.0519 C.ar    1  UNL1        0.1729
     26 O          15.9982   40.0672    8.9208 O.2     1  UNL1       -0.2860
     27 C          15.2110   41.0059    8.6205 C.2     1  UNL1        0.2030
     28 C          15.7435   42.1979    7.9225 C.ar    1  UNL1        0.0395
     29 C          15.0498   42.7336    6.8261 C.ar    1  UNL1        0.0032
     30 C          15.5286   43.8711    6.1696 C.ar    1  UNL1        0.0001
     31 C          16.7022   44.4884    6.6084 C.ar    1  UNL1        0.0000
     32 C          17.3965   43.9688    7.7038 C.ar    1  UNL1        0.0001
     33 C          16.9176   42.8309    8.3593 C.ar    1  UNL1        0.0032
@<TRIPOS>BOND
     1    13    14   am
     2     1     5   ar
     3     2     4   ar
     4     2     6    1
     5     3     5   ar
     6     3    27    1
     7    27    28    1
     8    29    30   ar
     9    31    32   ar
    10    33    28   ar
    11     7     8   ar
    12     9    10   ar
    13    11     6   ar
    14    18    13    1
    15    18    19    1
    16    18    17    1
    17    19    16    1
    18    20    16    1
    19    21    22   ar
    20    23    24   ar
    21    25    17    1
    22    25    20   ar
    23    14     1    1
    24    13    12    2
    25     1     4   ar
    26     2     3   ar
    27    27    26    2
    28    28    29   ar
    29    30    31   ar
    30    32    33   ar
    31     6     7   ar
    32     8     9   ar
    33    10    11   ar
    34    20    21   ar
    35    22    23   ar
    36    24    25   ar
    37    14    15    1
@<TRIPOS>MOLECULE
MolPort-003-022-299 CSSS01006092655 LN01393284 MCULE-4198873419 PubChem-4094527
 33 37 0 0 0
SMALL
GASTEIGER

@<TRIPOS>ATOM
      1 C          10.5595   41.3881   11.1740 C.ar    1  UNL1        0.1657
      2 C           8.4438   41.8235   10.5384 C.ar    1  UNL1        0.0923
      3 C           9.0455   43.0491   10.1966 C.ar    1  UNL1        0.0886
      4 N           9.3003   40.9122   11.0792 N.ar    1  UNL1       -0.2238
      5 S          10.6830   42.9535   10.5929 S.2     1  UNL1       -0.0482
      6 C           7.0059   41.5055   10.4023 C.ar    1  UNL1        0.0183
      7 C           6.1483   41.7005   11.4946 C.ar    1  UNL1        0.0015
      8 C           4.7797   41.4416   11.3767 C.ar    1  UNL1        0.0000
      9 C           4.2551   40.9950   10.1612 C.ar    1  UNL1        0.0000
     10 C           5.0977   40.8134    9.0623 C.ar    1  UNL1        0.0000
     11 C           6.4656   41.0732    9.1814 C.ar    1  UNL1        0.0015
     12 O          12.6366   40.0385    9.6754 O.2     1  UNL1       -0.2707
     13 C          12.6388   39.9577   10.9340 C.2     1  UNL1        0.2717
     14 N          11.6593   40.6501   11.7137 N.am    1  UNL1       -0.2611
     15 H          11.7489   40.6160   12.6935 H       1  UNL1        0.1569
     16 O          15.2535   38.7604    9.7900 O.3     1  UNL1       -0.4679
     17 O          13.4059   37.7697   11.5977 O.3     1  UNL1       -0.4630
     18 C          13.7017   39.1715   11.6348 C.3     1  UNL1        0.2846
     19 C          15.0801   39.4605   11.0239 C.3     1  UNL1        0.2583
     20 C          14.7656   37.4627    9.6239 C.ar    1  UNL1        0.1724
     21 C          15.1826   36.6774    8.5461 C.ar    1  UNL1        0.0400
     22 C          14.6968   35.3727    8.4081 C.ar    1  UNL1        0.0033
     23 C          13.7941   34.8562    9.3453 C.ar    1  UNL1        0.0033
     24 C          13.3674   35.6468   10.4178 C.ar    1  UNL1        0.0401
     25 C          13.8456   36.9533   10.5509 C.ar    1  UNL1        0.1729
     26 O           8.6796   45.3497    9.8095 O.2     1  UNL1       -0.2860
     27 C           8.4440   44.1674    9.4385 C.2     1  UNL1        0.2030
     28 C           7.5462   43.9396    8.2836 C.ar    1  UNL1        0.0395
     29 C           7.9787   43.1487    7.2076 C.ar    1  UNL1        0.0032
     30 C           7.1351   42.9071    6.1196 C.ar    1  UNL1        0.0001
     31 C           5.8473   43.4480    6.1008 C.ar    1  UNL1        0.0000
     32 C           5.4032   44.2298    7.1702 C.ar    1  UNL1        0.0001
     33 C           6.2477   44.4717    8.2575 C.ar    1  UNL1        0.0032
@<TRIPOS>BOND
     1    13    14   am
     2     1     5   ar
     3     2     4   ar
     4     2     6    1
     5     3     5   ar
     6     3    27    1
     7    27    28    1
     8    29    30   ar
     9    31    32   ar
    10    33    28   ar
    11     7     8   ar
    12     9    10   ar
    13    11     6   ar
    14    18    13    1
    15    18    19    1
    16    18    17    1
    17    19    16    1
    18    20    16    1
    19    21    22   ar
    20    23    24   ar
    21    25    17    1
    22    25    20   ar
    23    14     1    1
    24    13    12    2
    25     1     4   ar
    26     2     3   ar
    27    27    26    2
    28    28    29   ar
    29    30    31   ar
    30    32    33   ar
    31     6     7   ar
    32     8     9   ar
    33    10    11   ar
    34    20    21   ar
    35    22    23   ar
    36    24    25   ar
    37    14    15    1
@<TRIPOS>MOLECULE
MolPort-003-022-299 CSSS01006092655 LN01393284 MCULE-4198873419 PubChem-4094527
 33 37 0 0 0
SMALL
GASTEIGER

@<TRIPOS>ATOM
      1 C          11.5725   41.0267    9.9713 C.ar    1  UNL1        0.1657
      2 C          13.7745   40.9529    9.5072 C.ar    1  UNL1        0.0923
      3 C          13.6900   39.8709   10.4033 C.ar    1  UNL1        0.0886
      4 N          12.5882   41.5827    9.2782 N.ar    1  UNL1       -0.2238
      5 S          12.0829   39.7290   10.8979 S.2     1  UNL1       -0.0482
      6 C          15.0165   41.4513    8.8776 C.ar    1  UNL1        0.0183
      7 C          16.2593   41.0237    9.3667 C.ar    1  UNL1        0.0015
      8 C          17.4447   41.4532    8.7631 C.ar    1  UNL1        0.0000
      9 C          17.3968   42.3064    7.6577 C.ar    1  UNL1        0.0000
     10 C          16.1640   42.7249    7.1523 C.ar    1  UNL1        0.0000
     11 C          14.9797   42.2944    7.7563 C.ar    1  UNL1        0.0015
     12 O          10.6644   43.7393   10.4173 O.2     1  UNL1       -0.2707
     13 C           9.8113   42.8355   10.2030 C.2     1  UNL1        0.2717
     14 N          10.2208   41.4923    9.9293 N.am    1  UNL1       -0.2611
     15 H           9.5210   40.8407    9.6948 H       1  UNL1        0.1569
     16 O           7.3976   40.9910    9.6109 O.3     1  UNL1       -0.4679
     17 O           7.9472   43.6037    8.8798 O.3     1  UNL1       -0.4630
     18 C           8.3525   43.1682   10.1836 C.3     1  UNL1        0.2846
     19 C           7.5172   41.9670   10.6481 C.3     1  UNL1        0.2583
     20 C           7.2385   41.3735    8.2775 C.ar    1  UNL1        0.1724
     21 C           6.8307   40.4470    7.3144 C.ar    1  UNL1        0.0400
     22 C           6.6584   40.8545    5.9872 C.ar    1  UNL1        0.0033
     23 C           6.8960   42.1857    5.6245 C.ar    1  UNL1        0.0033
     24 C           7.3160   43.1106    6.5865 C.ar    1  UNL1        0.0401
     25 C           7.4967   42.7016    7.9107 C.ar    1  UNL1        0.1729
     26 O          15.3181   38.9484   11.8438 O.2     1  UNL1       -0.2860
     27 C          14.7422   38.8822   10.7236 C.2     1  UNL1        0.2030
     28 C          15.1642   37.8439    9.7563 C.ar    1  UNL1        0.0395
     29 C          16.4410   37.2699    9.8601 C.ar    1  UNL1        0.0032
     30 C          16.8465   36.2736    8.9674 C.ar    1  UNL1        0.0001
     31 C          15.9757   35.8361    7.9666 C.ar    1  UNL1        0.0000
     32 C          14.6994   36.3944    7.8592 C.ar    1  UNL1        0.0001
     33 C          14.2949   37.3912    8.7518 C.ar    1  UNL1        0.0032
@<TRIPOS>BOND
     1    13    14   am
     2     1     5   ar
     3     2     4   ar
     4     2     6    1
     5     3     5   ar
     6     3    27    1
     7    27    28    1
     8    29    30   ar
     9    31    32   ar
    10    33    28   ar
    11     7     8   ar
    12     9    10   ar
    13    11     6   ar
    14    18    13    1
    15    18    19    1
    16    18    17    1
    17    19    16    1
    18    20    16    1
    19    21    22   ar
    20    23    24   ar
    21    25    17    1
    22    25    20   ar
    23    14     1    1
    24    13    12    2
    25     1     4   ar
    26     2     3   ar
    27    27    26    2
    28    28    29   ar
    29    30    31   ar
    30    32    33   ar
    31     6     7   ar
    32     8     9   ar
    33    10    11   ar
    34    20    21   ar
    35    22    23   ar
    36    24    25   ar
    37    14    15    1
