@<TRIPOS>MOLECULE
MolPort-007-807-850 ChemDiv-F689-0640 MCULE-7230852670 PubChem-46325690 ZINC000033007958
 29 31 0 0 0
SMALL
GASTEIGER

@<TRIPOS>ATOM
      1 C          12.3781   40.5264   10.0219 C.ar    1  UNL1        0.1580
      2 C          12.9511   41.1592    8.9153 C.ar    1  UNL1        0.1231
      3 C          14.5283   42.0023    7.5794 C.ar    1  UNL1        0.1656
      4 C          12.1523   41.6320    7.8854 C.ar    1  UNL1        0.0540
      5 C          10.7684   41.5033    7.9017 C.ar    1  UNL1        0.0241
      6 C          10.1704   40.8716    9.0072 C.ar    1  UNL1        0.0684
      7 C          10.9745   40.3874   10.0571 C.ar    1  UNL1        0.0543
      8 N          14.2832   41.3633    8.7501 N.ar    1  UNL1       -0.2209
      9 S          13.1174   42.3380    6.7085 S.2     1  UNL1       -0.0512
     10 C          16.2224   43.6604    6.6723 C.2     1  UNL1        0.2280
     11 C          17.6197   43.8930    6.2240 C.3     1  UNL1        0.0950
     12 O          15.3980   44.6121    6.6492 O.2     1  UNL1       -0.2747
     13 N          15.8368   42.3581    7.1231 N.am    1  UNL1       -0.2641
     14 H          16.5243   41.6534    7.1190 H       1  UNL1        0.1567
     15 C          13.4409   38.6689   11.2609 C.3     1  UNL1        0.2525
     16 O          13.1931   40.0526   11.0546 O.3     1  UNL1       -0.4698
     17 N           8.7520   40.7118    9.0909 N.pl3   1  UNL1       -0.2148
     18 H           8.3932   39.8013    9.1980 H       1  UNL1        0.1737
     19 O           8.2214   43.2350    9.6879 O.2     1  UNL1       -0.1499
     20 O           7.3688   42.3699    7.5744 O.2     1  UNL1       -0.1499
     21 S           7.6278   42.0291    9.0148 S.O2    1  UNL1        0.0758
     22 C           6.1065   41.5584    9.7691 C.ar    1  UNL1        0.1547
     23 C           4.9471   41.5387    8.9849 C.ar    1  UNL1        0.0521
     24 C           3.7237   41.1555    9.5402 C.ar    1  UNL1        0.1416
     25 C           3.6529   40.7849   10.8848 C.ar    1  UNL1        0.0320
     26 C           4.8056   40.7976   11.6739 C.ar    1  UNL1        0.0333
     27 C           6.0322   41.1819   11.1232 C.ar    1  UNL1        0.1590
     28 F           2.6070   41.1415    8.7740 F       1  UNL1       -0.2041
     29 F           7.1346   41.1753   11.9121 F       1  UNL1       -0.2027
@<TRIPOS>BOND
     1    15    16    1
     2     1    16    1
     3     2     8   ar
     4     3    13    1
     5     3     9   ar
     6    11    10    1
     7     4     9   ar
     8     4     2   ar
     9     5     6   ar
    10     6    17    1
    11    23    24   ar
    12    24    28    1
    13    25    26   ar
    14    27    29    1
    15    27    22   ar
    16     7     1   ar
    17    13    10   am
    18    21    17    1
    19    21    22    1
    20     1     2   ar
    21     3     8   ar
    22    10    12    2
    23     4     5   ar
    24     6     7   ar
    25    22    23   ar
    26    24    25   ar
    27    26    27   ar
    28    21    19    2
    29    21    20    2
    30    13    14    1
    31    17    18    1
@<TRIPOS>MOLECULE
MolPort-007-807-850 ChemDiv-F689-0640 MCULE-7230852670 PubChem-46325690 ZINC000033007958
 29 31 0 0 0
SMALL
GASTEIGER

@<TRIPOS>ATOM
      1 C          14.7318   43.1031    6.7918 C.ar    1  UNL1        0.1580
      2 C          15.0787   42.0863    7.6858 C.ar    1  UNL1        0.1231
      3 C          16.3208   40.8854    9.0993 C.ar    1  UNL1        0.1656
      4 C          14.1638   41.0977    8.0139 C.ar    1  UNL1        0.0540
      5 C          12.8807   41.0684    7.4802 C.ar    1  UNL1        0.0241
      6 C          12.5111   42.0809    6.5763 C.ar    1  UNL1        0.0684
      7 C          13.4340   43.0896    6.2385 C.ar    1  UNL1        0.0543
      8 N          16.2891   41.9735    8.2906 N.ar    1  UNL1       -0.2209
      9 S          14.8638   40.0260    9.0986 S.2     1  UNL1       -0.0512
     10 C          17.9439   39.1591   10.0090 C.2     1  UNL1        0.2280
     11 C          19.1429   38.8975   10.8465 C.3     1  UNL1        0.0950
     12 O          17.3705   38.1983    9.4310 O.2     1  UNL1       -0.2747
     13 N          17.4606   40.4992    9.8731 N.am    1  UNL1       -0.2641
     14 H          17.9497   41.2094   10.3481 H       1  UNL1        0.1567
     15 C          15.3161   45.2564    5.7256 C.3     1  UNL1        0.2525
     16 O          15.6621   44.0957    6.4685 O.3     1  UNL1       -0.4698
     17 N          11.2094   42.1071    5.9853 N.pl3   1  UNL1       -0.2148
     18 H          11.1198   42.4748    5.0765 H       1  UNL1        0.1737
     19 O           9.0399   42.6866    7.3859 O.2     1  UNL1       -0.1499
     20 O           8.8861   40.8768    5.7601 O.2     1  UNL1       -0.1499
     21 S           9.7799   41.5285    6.7770 S.O2    1  UNL1        0.0758
     22 C          10.2164   40.3345    7.9971 C.ar    1  UNL1        0.1547
     23 C          10.5332   40.7783    9.2864 C.ar    1  UNL1        0.0521
     24 C          10.8684   39.8629   10.2873 C.ar    1  UNL1        0.1416
     25 C          10.8849   38.4952   10.0054 C.ar    1  UNL1        0.0320
     26 C          10.5661   38.0430    8.7227 C.ar    1  UNL1        0.0333
     27 C          10.2314   38.9553    7.7170 C.ar    1  UNL1        0.1590
     28 F          11.1754   40.3019   11.5312 F       1  UNL1       -0.2041
     29 F           9.9181   38.4852    6.4848 F       1  UNL1       -0.2027
@<TRIPOS>BOND
     1    15    16    1
     2     1    16    1
     3     2     8   ar
     4     3    13    1
     5     3     9   ar
     6    11    10    1
     7     4     9   ar
     8     4     2   ar
     9     5     6   ar
    10     6    17    1
    11    23    24   ar
    12    24    28    1
    13    25    26   ar
    14    27    29    1
    15    27    22   ar
    16     7     1   ar
    17    13    10   am
    18    21    17    1
    19    21    22    1
    20     1     2   ar
    21     3     8   ar
    22    10    12    2
    23     4     5   ar
    24     6     7   ar
    25    22    23   ar
    26    24    25   ar
    27    26    27   ar
    28    21    19    2
    29    21    20    2
    30    13    14    1
    31    17    18    1
@<TRIPOS>MOLECULE
MolPort-007-807-850 ChemDiv-F689-0640 MCULE-7230852670 PubChem-46325690 ZINC000033007958
 29 31 0 0 0
SMALL
GASTEIGER

@<TRIPOS>ATOM
      1 C           8.9878   40.1403    5.2951 C.ar    1  UNL1        0.1580
      2 C           8.1973   40.5929    6.3550 C.ar    1  UNL1        0.1231
      3 C           6.3941   40.8750    7.6404 C.ar    1  UNL1        0.1656
      4 C           8.7373   41.4143    7.3327 C.ar    1  UNL1        0.0540
      5 C          10.0661   41.8215    7.3079 C.ar    1  UNL1        0.0241
      6 C          10.8793   41.3794    6.2486 C.ar    1  UNL1        0.0684
      7 C          10.3390   40.5439    5.2520 C.ar    1  UNL1        0.0543
      8 N           6.8850   40.2867    6.5215 N.ar    1  UNL1       -0.2209
      9 S           7.5552   41.7906    8.4622 S.2     1  UNL1       -0.0512
     10 C           4.3811   41.6341    8.9871 C.2     1  UNL1        0.2280
     11 C           2.9679   41.3759    9.3663 C.3     1  UNL1        0.0950
     12 O           4.9778   42.6348    9.4651 O.2     1  UNL1       -0.2747
     13 N           5.0407   40.7408    8.0845 N.am    1  UNL1       -0.2641
     14 H           4.5238   39.9756    7.7431 H       1  UNL1        0.1567
     15 C           9.2102   38.7205    3.2826 C.3     1  UNL1        0.2525
     16 O           8.4331   39.3115    4.3149 O.3     1  UNL1       -0.4698
     17 N          12.2531   41.7657    6.1586 N.pl3   1  UNL1       -0.2148
     18 H          12.6250   41.9523    5.2664 H       1  UNL1        0.1737
     19 O          12.5561   42.5824    8.6577 O.2     1  UNL1       -0.1499
     20 O          13.7303   40.5565    7.9801 O.2     1  UNL1       -0.1499
     21 S          13.3012   41.9245    7.5301 S.O2    1  UNL1        0.0758
     22 C          14.7325   42.8495    7.0823 C.ar    1  UNL1        0.1547
     23 C          15.9591   42.5114    7.6658 C.ar    1  UNL1        0.0521
     24 C          17.1208   43.2091    7.3255 C.ar    1  UNL1        0.1416
     25 C          17.0634   44.2485    6.3945 C.ar    1  UNL1        0.0320
     26 C          15.8443   44.5901    5.8041 C.ar    1  UNL1        0.0333
     27 C          14.6785   43.8959    6.1425 C.ar    1  UNL1        0.1590
     28 F          18.3026   42.8759    7.8968 F       1  UNL1       -0.2041
     29 F          13.5124   44.2448    5.5458 F       1  UNL1       -0.2027
@<TRIPOS>BOND
     1    15    16    1
     2     1    16    1
     3     2     8   ar
     4     3    13    1
     5     3     9   ar
     6    11    10    1
     7     4     9   ar
     8     4     2   ar
     9     5     6   ar
    10     6    17    1
    11    23    24   ar
    12    24    28    1
    13    25    26   ar
    14    27    29    1
    15    27    22   ar
    16     7     1   ar
    17    13    10   am
    18    21    17    1
    19    21    22    1
    20     1     2   ar
    21     3     8   ar
    22    10    12    2
    23     4     5   ar
    24     6     7   ar
    25    22    23   ar
    26    24    25   ar
    27    26    27   ar
    28    21    19    2
    29    21    20    2
    30    13    14    1
    31    17    18    1
@<TRIPOS>MOLECULE
MolPort-007-807-850 ChemDiv-F689-0640 MCULE-7230852670 PubChem-46325690 ZINC000033007958
 29 31 0 0 0
SMALL
GASTEIGER

@<TRIPOS>ATOM
      1 C          10.5380   40.8501    5.6429 C.ar    1  UNL1        0.1580
      2 C          11.5389   41.5163    6.3555 C.ar    1  UNL1        0.1231
      3 C          13.5435   42.3791    6.8247 C.ar    1  UNL1        0.1656
      4 C          11.2739   42.0469    7.6086 C.ar    1  UNL1        0.0540
      5 C          10.0239   41.9445    8.2078 C.ar    1  UNL1        0.0241
      6 C           9.0023   41.2758    7.5092 C.ar    1  UNL1        0.0684
      7 C           9.2627   40.7349    6.2353 C.ar    1  UNL1        0.0543
      8 N          12.8085   41.6990    5.9102 N.ar    1  UNL1       -0.2209
      9 S          12.6588   42.7784    8.2102 S.2     1  UNL1       -0.0512
     10 C          15.3910   43.8690    5.9253 C.2     1  UNL1        0.2280
     11 C          16.8528   44.1103    5.8148 C.3     1  UNL1        0.0950
     12 O          14.5877   44.6744    5.3848 O.2     1  UNL1       -0.2747
     13 N          14.9201   42.7250    6.6445 N.am    1  UNL1       -0.2641
     14 H          15.5947   42.1308    7.0458 H       1  UNL1        0.1567
     15 C           9.8993   39.4902    3.6788 C.3     1  UNL1        0.2525
     16 O          10.8159   40.3194    4.3794 O.3     1  UNL1       -0.4698
     17 N           7.6953   41.1288    8.0701 N.pl3   1  UNL1       -0.2148
     18 H           7.1553   40.3542    7.7914 H       1  UNL1        0.1737
     19 O           8.0185   42.5507   10.2787 O.2     1  UNL1       -0.1499
     20 O           6.6517   43.5130    8.5044 O.2     1  UNL1       -0.1499
     21 S           7.0068   42.2361    9.2124 S.O2    1  UNL1        0.0758
     22 C           5.5413   41.5441    9.9040 C.ar    1  UNL1        0.1547
     23 C           4.3695   41.5532    9.1384 C.ar    1  UNL1        0.0521
     24 C           3.1901   40.9997    9.6432 C.ar    1  UNL1        0.1416
     25 C           3.1766   40.4289   10.9177 C.ar    1  UNL1        0.0320
     26 C           4.3424   40.4117   11.6872 C.ar    1  UNL1        0.0333
     27 C           5.5250   40.9658   11.1871 C.ar    1  UNL1        0.1590
     28 F           2.0608   41.0150    8.8958 F       1  UNL1       -0.2041
     29 F           6.6420   40.9257   11.9540 F       1  UNL1       -0.2027
@<TRIPOS>BOND
     1    15    16    1
     2     1    16    1
     3     2     8   ar
     4     3    13    1
     5     3     9   ar
     6    11    10    1
     7     4     9   ar
     8     4     2   ar
     9     5     6   ar
    10     6    17    1
    11    23    24   ar
    12    24    28    1
    13    25    26   ar
    14    27    29    1
    15    27    22   ar
    16     7     1   ar
    17    13    10   am
    18    21    17    1
    19    21    22    1
    20     1     2   ar
    21     3     8   ar
    22    10    12    2
    23     4     5   ar
    24     6     7   ar
    25    22    23   ar
    26    24    25   ar
    27    26    27   ar
    28    21    19    2
    29    21    20    2
    30    13    14    1
    31    17    18    1
@<TRIPOS>MOLECULE
MolPort-007-807-850 ChemDiv-F689-0640 MCULE-7230852670 PubChem-46325690 ZINC000033007958
 29 31 0 0 0
SMALL
GASTEIGER

@<TRIPOS>ATOM
      1 C          13.9431   42.3302    7.2443 C.ar    1  UNL1        0.1580
      2 C          12.6537   41.7998    7.1471 C.ar    1  UNL1        0.1231
      3 C          10.5079   41.6274    6.5564 C.ar    1  UNL1        0.1656
      4 C          12.3383   40.6026    7.7711 C.ar    1  UNL1        0.0540
      5 C          13.2703   39.8840    8.5107 C.ar    1  UNL1        0.0241
      6 C          14.5737   40.4009    8.6236 C.ar    1  UNL1        0.0684
      7 C          14.9028   41.6158    7.9919 C.ar    1  UNL1        0.0543
      8 N          11.6328   42.3792    6.4647 N.ar    1  UNL1       -0.2209
      9 S          10.7295   40.2267    7.4784 S.2     1  UNL1       -0.0512
     10 C           8.1112   42.4585    6.6398 C.2     1  UNL1        0.2280
     11 C           6.8789   42.7831    5.8759 C.3     1  UNL1        0.0950
     12 O           8.1240   42.6133    7.8896 O.2     1  UNL1       -0.2747
     13 N           9.2634   41.9753    5.9422 N.am    1  UNL1       -0.2641
     14 H           9.1944   41.8745    4.9653 H       1  UNL1        0.1567
     15 C          15.5690   44.0660    6.5670 C.3     1  UNL1        0.2525
     16 O          14.2506   43.5381    6.6103 O.3     1  UNL1       -0.4698
     17 N          15.5794   39.7161    9.3746 N.pl3   1  UNL1       -0.2148
     18 H          16.5137   39.7886    9.0728 H       1  UNL1        0.1737
     19 O          16.5096   38.5997   11.5866 O.2     1  UNL1       -0.1499
     20 O          14.2389   39.4850   11.6355 O.2     1  UNL1       -0.1499
     21 S          15.2483   38.7657   10.7860 S.O2    1  UNL1        0.0758
     22 C          14.5813   37.2056   10.3107 C.ar    1  UNL1        0.1547
     23 C          13.3413   36.8193   10.8327 C.ar    1  UNL1        0.0521
     24 C          12.7697   35.5976   10.4683 C.ar    1  UNL1        0.1416
     25 C          13.4342   34.7549    9.5746 C.ar    1  UNL1        0.0320
     26 C          14.6701   35.1341    9.0454 C.ar    1  UNL1        0.0333
     27 C          15.2472   36.3552    9.4082 C.ar    1  UNL1        0.1590
     28 F          11.5704   35.2316   10.9802 F       1  UNL1       -0.2041
     29 F          16.4432   36.6992    8.8708 F       1  UNL1       -0.2027
@<TRIPOS>BOND
     1    15    16    1
     2     1    16    1
     3     2     8   ar
     4     3    13    1
     5     3     9   ar
     6    11    10    1
     7     4     9   ar
     8     4     2   ar
     9     5     6   ar
    10     6    17    1
    11    23    24   ar
    12    24    28    1
    13    25    26   ar
    14    27    29    1
    15    27    22   ar
    16     7     1   ar
    17    13    10   am
    18    21    17    1
    19    21    22    1
    20     1     2   ar
    21     3     8   ar
    22    10    12    2
    23     4     5   ar
    24     6     7   ar
    25    22    23   ar
    26    24    25   ar
    27    26    27   ar
    28    21    19    2
    29    21    20    2
    30    13    14    1
    31    17    18    1
@<TRIPOS>MOLECULE
MolPort-007-807-850 ChemDiv-F689-0640 MCULE-7230852670 PubChem-46325690 ZINC000033007958
 29 31 0 0 0
SMALL
GASTEIGER

@<TRIPOS>ATOM
      1 C           9.2512   39.9636    5.1889 C.ar    1  UNL1        0.1580
      2 C           8.4639   40.5411    6.1890 C.ar    1  UNL1        0.1231
      3 C           6.6601   40.9909    7.4247 C.ar    1  UNL1        0.1656
      4 C           9.0141   41.4531    7.0765 C.ar    1  UNL1        0.0540
      5 C          10.3501   41.8320    7.0171 C.ar    1  UNL1        0.0241
      6 C          11.1602   41.2647    6.0167 C.ar    1  UNL1        0.0684
      7 C          10.6096   40.3366    5.1118 C.ar    1  UNL1        0.0543
      8 N           7.1455   40.2775    6.3785 N.ar    1  UNL1       -0.2209
      9 S           7.8335   41.9689    8.1513 S.2     1  UNL1       -0.0512
     10 C           4.8805   41.0519    9.2333 C.2     1  UNL1        0.2280
     11 C           3.4333   40.9681    9.5592 C.3     1  UNL1        0.0950
     12 O           5.7147   41.2303   10.1599 O.2     1  UNL1       -0.2747
     13 N           5.3023   40.9287    7.8715 N.am    1  UNL1       -0.2641
     14 H           4.6052   40.7906    7.1902 H       1  UNL1        0.1567
     15 C           9.4192   38.4654    3.2288 C.3     1  UNL1        0.2525
     16 O           8.6863   39.0443    4.2995 O.3     1  UNL1       -0.4698
     17 N          12.5411   41.6151    5.8950 N.pl3   1  UNL1       -0.2148
     18 H          13.0959   41.1025    5.2637 H       1  UNL1        0.1737
     19 O          13.6668   44.0101    5.8638 O.2     1  UNL1       -0.1499
     20 O          12.3174   43.4204    7.8063 O.2     1  UNL1       -0.1499
     21 S          13.2946   42.8906    6.7953 S.O2    1  UNL1        0.0758
     22 C          14.7072   42.2669    7.6439 C.ar    1  UNL1        0.1547
     23 C          14.5534   41.1465    8.4688 C.ar    1  UNL1        0.0521
     24 C          15.6514   40.6105    9.1464 C.ar    1  UNL1        0.1416
     25 C          16.9134   41.1905    8.9996 C.ar    1  UNL1        0.0320
     26 C          17.0770   42.3063    8.1752 C.ar    1  UNL1        0.0333
     27 C          15.9808   42.8475    7.4961 C.ar    1  UNL1        0.1590
     28 F          15.4924   39.5275    9.9438 F       1  UNL1       -0.2041
     29 F          16.1732   43.9250    6.6964 F       1  UNL1       -0.2027
@<TRIPOS>BOND
     1    15    16    1
     2     1    16    1
     3     2     8   ar
     4     3    13    1
     5     3     9   ar
     6    11    10    1
     7     4     9   ar
     8     4     2   ar
     9     5     6   ar
    10     6    17    1
    11    23    24   ar
    12    24    28    1
    13    25    26   ar
    14    27    29    1
    15    27    22   ar
    16     7     1   ar
    17    13    10   am
    18    21    17    1
    19    21    22    1
    20     1     2   ar
    21     3     8   ar
    22    10    12    2
    23     4     5   ar
    24     6     7   ar
    25    22    23   ar
    26    24    25   ar
    27    26    27   ar
    28    21    19    2
    29    21    20    2
    30    13    14    1
    31    17    18    1
@<TRIPOS>MOLECULE
MolPort-007-807-850 ChemDiv-F689-0640 MCULE-7230852670 PubChem-46325690 ZINC000033007958
 29 31 0 0 0
SMALL
GASTEIGER

@<TRIPOS>ATOM
      1 C           9.3631   40.1975    5.4176 C.ar    1  UNL1        0.1580
      2 C           8.7017   41.1349    6.2159 C.ar    1  UNL1        0.1231
      3 C           7.1244   42.5696    6.8768 C.ar    1  UNL1        0.1656
      4 C           9.2589   41.5540    7.4143 C.ar    1  UNL1        0.0540
      5 C          10.4796   41.0727    7.8728 C.ar    1  UNL1        0.0241
      6 C          11.1636   40.1301    7.0837 C.ar    1  UNL1        0.0684
      7 C          10.6042   39.6982    5.8656 C.ar    1  UNL1        0.0543
      8 N           7.5059   41.6998    5.9088 N.ar    1  UNL1       -0.2209
      9 S           8.2429   42.6737    8.1416 S.2     1  UNL1       -0.0512
     10 C           5.5446   44.3407    7.7764 C.2     1  UNL1        0.2280
     11 C           4.2466   45.0463    7.6197 C.3     1  UNL1        0.0950
     12 O           6.3059   44.6490    8.7311 O.2     1  UNL1       -0.2747
     13 N           5.9082   43.3222    6.8393 N.am    1  UNL1       -0.2641
     14 H           5.2731   43.1243    6.1135 H       1  UNL1        0.1567
     15 C           9.4782   38.9498    3.2857 C.3     1  UNL1        0.2525
     16 O           8.7918   39.7811    4.2111 O.3     1  UNL1       -0.4698
     17 N          12.4265   39.5990    7.4928 N.pl3   1  UNL1       -0.2148
     18 H          12.7194   38.7447    7.1009 H       1  UNL1        0.1737
     19 O          12.6573   40.8871    9.7933 O.2     1  UNL1       -0.1499
     20 O          14.4546   39.3651    9.1645 O.2     1  UNL1       -0.1499
     21 S          13.4716   40.3728    8.6391 S.O2    1  UNL1        0.0758
     22 C          14.3598   41.6748    7.8514 C.ar    1  UNL1        0.1547
     23 C          13.6853   42.4855    6.9308 C.ar    1  UNL1        0.0521
     24 C          14.3486   43.5390    6.2966 C.ar    1  UNL1        0.1416
     25 C          15.6920   43.7913    6.5829 C.ar    1  UNL1        0.0320
     26 C          16.3720   42.9901    7.5033 C.ar    1  UNL1        0.0333
     27 C          15.7130   41.9334    8.1396 C.ar    1  UNL1        0.1590
     28 F          13.6882   44.3167    5.4060 F       1  UNL1       -0.2041
     29 F          16.3972   41.1795    9.0345 F       1  UNL1       -0.2027
@<TRIPOS>BOND
     1    15    16    1
     2     1    16    1
     3     2     8   ar
     4     3    13    1
     5     3     9   ar
     6    11    10    1
     7     4     9   ar
     8     4     2   ar
     9     5     6   ar
    10     6    17    1
    11    23    24   ar
    12    24    28    1
    13    25    26   ar
    14    27    29    1
    15    27    22   ar
    16     7     1   ar
    17    13    10   am
    18    21    17    1
    19    21    22    1
    20     1     2   ar
    21     3     8   ar
    22    10    12    2
    23     4     5   ar
    24     6     7   ar
    25    22    23   ar
    26    24    25   ar
    27    26    27   ar
    28    21    19    2
    29    21    20    2
    30    13    14    1
    31    17    18    1
@<TRIPOS>MOLECULE
MolPort-007-807-850 ChemDiv-F689-0640 MCULE-7230852670 PubChem-46325690 ZINC000033007958
 29 31 0 0 0
SMALL
GASTEIGER

@<TRIPOS>ATOM
      1 C          12.4831   41.1503    7.9695 C.ar    1  UNL1        0.1580
      2 C          11.4621   41.1630    8.9238 C.ar    1  UNL1        0.1231
      3 C           9.4318   41.4600    9.8029 C.ar    1  UNL1        0.1656
      4 C          11.7118   40.7529   10.2245 C.ar    1  UNL1        0.0540
      5 C          12.9658   40.3176   10.6367 C.ar    1  UNL1        0.0241
      6 C          14.0087   40.2991    9.6929 C.ar    1  UNL1        0.0684
      7 C          13.7634   40.7128    8.3693 C.ar    1  UNL1        0.0543
      8 N          10.1867   41.5602    8.6808 N.ar    1  UNL1       -0.2209
      9 S          10.3054   40.8804   11.1305 S.2     1  UNL1       -0.0512
     10 C           7.0446   41.3531    8.9475 C.2     1  UNL1        0.2280
     11 C           5.6363   41.7905    9.1293 C.3     1  UNL1        0.0950
     12 O           7.3375   40.5905    7.9891 O.2     1  UNL1       -0.2747
     13 N           8.0448   41.8058    9.8653 N.am    1  UNL1       -0.2641
     14 H           7.7567   42.4004   10.5951 H       1  UNL1        0.1567
     15 C          11.5539   40.7400    5.7149 C.3     1  UNL1        0.2525
     16 O          12.2200   41.5653    6.6603 O.3     1  UNL1       -0.4698
     17 N          15.3244   39.8690   10.0515 N.pl3   1  UNL1       -0.2148
     18 H          16.0907   40.3766    9.6987 H       1  UNL1        0.1737
     19 O          17.1330   38.2972   11.1753 O.2     1  UNL1       -0.1499
     20 O          15.1111   38.7838   12.4471 O.2     1  UNL1       -0.1499
     21 S          15.6479   38.5053   11.0715 S.O2    1  UNL1        0.0758
     22 C          14.8443   37.0756   10.4275 C.ar    1  UNL1        0.1547
     23 C          13.6048   36.7050   10.9622 C.ar    1  UNL1        0.0521
     24 C          12.9268   35.5876   10.4684 C.ar    1  UNL1        0.1416
     25 C          13.4833   34.8351    9.4319 C.ar    1  UNL1        0.0320
     26 C          14.7177   35.2000    8.8893 C.ar    1  UNL1        0.0333
     27 C          15.4011   36.3165    9.3812 C.ar    1  UNL1        0.1590
     28 F          11.7290   35.2357   10.9934 F       1  UNL1       -0.2041
     29 F          16.5928   36.6505    8.8280 F       1  UNL1       -0.2027
@<TRIPOS>BOND
     1    15    16    1
     2     1    16    1
     3     2     8   ar
     4     3    13    1
     5     3     9   ar
     6    11    10    1
     7     4     9   ar
     8     4     2   ar
     9     5     6   ar
    10     6    17    1
    11    23    24   ar
    12    24    28    1
    13    25    26   ar
    14    27    29    1
    15    27    22   ar
    16     7     1   ar
    17    13    10   am
    18    21    17    1
    19    21    22    1
    20     1     2   ar
    21     3     8   ar
    22    10    12    2
    23     4     5   ar
    24     6     7   ar
    25    22    23   ar
    26    24    25   ar
    27    26    27   ar
    28    21    19    2
    29    21    20    2
    30    13    14    1
    31    17    18    1
@<TRIPOS>MOLECULE
MolPort-007-807-850 ChemDiv-F689-0640 MCULE-7230852670 PubChem-46325690 ZINC000033007958
 29 31 0 0 0
SMALL
GASTEIGER

@<TRIPOS>ATOM
      1 C          12.1581   39.2587    8.6088 C.ar    1  UNL1        0.1580
      2 C          12.6486   40.3870    7.9458 C.ar    1  UNL1        0.1231
      3 C          14.0841   41.9751    7.3128 C.ar    1  UNL1        0.1656
      4 C          11.8357   41.1000    7.0780 C.ar    1  UNL1        0.0540
      5 C          10.5176   40.7357    6.8290 C.ar    1  UNL1        0.0241
      6 C          10.0027   39.6044    7.4876 C.ar    1  UNL1        0.0684
      7 C          10.8220   38.8739    8.3699 C.ar    1  UNL1        0.0543
      8 N          13.9096   40.8718    8.0818 N.ar    1  UNL1       -0.2209
      9 S          12.6959   42.3918    6.4405 S.2     1  UNL1       -0.0512
     10 C          15.6592   43.6197    6.1920 C.2     1  UNL1        0.2280
     11 C          16.9671   44.3228    6.2428 C.3     1  UNL1        0.0950
     12 O          14.8790   43.8319    5.2264 O.2     1  UNL1       -0.2747
     13 N          15.3078   42.7130    7.2418 N.am    1  UNL1       -0.2641
     14 H          15.9576   42.5873    7.9706 H       1  UNL1        0.1567
     15 C          13.6180   37.3277    9.1140 C.3     1  UNL1        0.2525
     16 O          12.9869   38.5465    9.4813 O.3     1  UNL1       -0.4698
     17 N           8.6534   39.1781    7.2821 N.pl3   1  UNL1       -0.2148
     18 H           8.3571   38.3482    7.7210 H       1  UNL1        0.1737
     19 O           8.1568   40.4377    5.0081 O.2     1  UNL1       -0.1499
     20 O           6.3496   39.1342    5.9966 O.2     1  UNL1       -0.1499
     21 S           7.5093   40.0386    6.3047 S.O2    1  UNL1        0.0758
     22 C           6.9142   41.4454    7.1831 C.ar    1  UNL1        0.1547
     23 C           6.0949   41.2415    8.2997 C.ar    1  UNL1        0.0521
     24 C           5.6156   42.3294    9.0337 C.ar    1  UNL1        0.1416
     25 C           5.9567   43.6303    8.6572 C.ar    1  UNL1        0.0320
     26 C           6.7771   43.8431    7.5468 C.ar    1  UNL1        0.0333
     27 C           7.2582   42.7576    6.8079 C.ar    1  UNL1        0.1590
     28 F           4.8219   42.1222   10.1114 F       1  UNL1       -0.2041
     29 F           8.0596   42.9960    5.7409 F       1  UNL1       -0.2027
@<TRIPOS>BOND
     1    15    16    1
     2     1    16    1
     3     2     8   ar
     4     3    13    1
     5     3     9   ar
     6    11    10    1
     7     4     9   ar
     8     4     2   ar
     9     5     6   ar
    10     6    17    1
    11    23    24   ar
    12    24    28    1
    13    25    26   ar
    14    27    29    1
    15    27    22   ar
    16     7     1   ar
    17    13    10   am
    18    21    17    1
    19    21    22    1
    20     1     2   ar
    21     3     8   ar
    22    10    12    2
    23     4     5   ar
    24     6     7   ar
    25    22    23   ar
    26    24    25   ar
    27    26    27   ar
    28    21    19    2
    29    21    20    2
    30    13    14    1
    31    17    18    1
@<TRIPOS>MOLECULE
MolPort-007-807-850 ChemDiv-F689-0640 MCULE-7230852670 PubChem-46325690 ZINC000033007958
 29 31 0 0 0
SMALL
GASTEIGER

@<TRIPOS>ATOM
      1 C          13.8252   42.7285    6.8781 C.ar    1  UNL1        0.1580
      2 C          14.1080   41.6027    7.6567 C.ar    1  UNL1        0.1231
      3 C          15.2464   40.2205    8.9895 C.ar    1  UNL1        0.1656
      4 C          13.1728   40.5878    7.7889 C.ar    1  UNL1        0.0540
      5 C          11.9315   40.6376    7.1655 C.ar    1  UNL1        0.0241
      6 C          11.6269   41.7607    6.3750 C.ar    1  UNL1        0.0684
      7 C          12.5707   42.7967    6.2363 C.ar    1  UNL1        0.0543
      8 N          15.2718   41.4034    8.3269 N.ar    1  UNL1       -0.2209
      9 S          13.7940   39.3803    8.7743 S.2     1  UNL1       -0.0512
     10 C          16.1872   39.1186   11.0734 C.2     1  UNL1        0.2280
     11 C          17.3986   38.6509   11.7953 C.3     1  UNL1        0.0950
     12 O          15.0545   38.9712   11.6039 O.2     1  UNL1       -0.2747
     13 N          16.3279   39.7289    9.7868 N.am    1  UNL1       -0.2641
     14 H          17.2382   39.8172    9.4224 H       1  UNL1        0.1567
     15 C          14.7432   44.6976    5.6971 C.3     1  UNL1        0.2525
     16 O          14.7754   43.7466    6.7522 O.3     1  UNL1       -0.4698
     17 N          10.3711   41.8730    5.7006 N.pl3   1  UNL1       -0.2148
     18 H          10.3527   42.3257    4.8266 H       1  UNL1        0.1737
     19 O           8.0327   40.7363    5.2061 O.2     1  UNL1       -0.1499
     20 O           9.1755   40.1203    7.2693 O.2     1  UNL1       -0.1499
     21 S           8.8791   41.2580    6.3336 S.O2    1  UNL1        0.0758
     22 C           8.0438   42.5256    7.2281 C.ar    1  UNL1        0.1547
     23 C           6.8061   42.9764    6.7544 C.ar    1  UNL1        0.0521
     24 C           6.1034   43.9682    7.4433 C.ar    1  UNL1        0.1416
     25 C           6.6334   44.5135    8.6147 C.ar    1  UNL1        0.0320
     26 C           7.8659   44.0667    9.0971 C.ar    1  UNL1        0.0333
     27 C           8.5739   43.0753    8.4104 C.ar    1  UNL1        0.1590
     28 F           4.9075   44.3993    6.9761 F       1  UNL1       -0.2041
     29 F           9.7630   42.6563    8.9084 F       1  UNL1       -0.2027
@<TRIPOS>BOND
     1    15    16    1
     2     1    16    1
     3     2     8   ar
     4     3    13    1
     5     3     9   ar
     6    11    10    1
     7     4     9   ar
     8     4     2   ar
     9     5     6   ar
    10     6    17    1
    11    23    24   ar
    12    24    28    1
    13    25    26   ar
    14    27    29    1
    15    27    22   ar
    16     7     1   ar
    17    13    10   am
    18    21    17    1
    19    21    22    1
    20     1     2   ar
    21     3     8   ar
    22    10    12    2
    23     4     5   ar
    24     6     7   ar
    25    22    23   ar
    26    24    25   ar
    27    26    27   ar
    28    21    19    2
    29    21    20    2
    30    13    14    1
    31    17    18    1
