@<TRIPOS>MOLECULE
MolPort-046-949-852 141560344 MCULE-9951375541 PubChem-46951964 ZINC000141560344
 30 33 0 0 0
SMALL
GASTEIGER

@<TRIPOS>ATOM
      1 C          11.3224   41.3645    6.4012 C.2     1  UNL1        0.2483
      2 O          12.0037   40.3073    6.4567 O.2     1  UNL1       -0.2728
      3 N          11.9428   42.6541    6.4549 N.am    1  UNL1       -0.2627
      4 H          11.3446   43.4352    6.4204 H       1  UNL1        0.1568
      5 C          16.5000   42.1129    8.0328 C.ar    1  UNL1        0.1566
      6 C          17.7816   42.6756    7.8547 C.ar    1  UNL1        0.0385
      7 C          17.9783   43.7493    6.9659 C.ar    1  UNL1        0.0037
      8 C          16.9007   44.2781    6.2402 C.ar    1  UNL1        0.0083
      9 C          15.6458   43.7070    6.4285 C.ar    1  UNL1        0.0527
     10 C          13.3465   42.9211    6.5536 C.ar    1  UNL1        0.1657
     11 C          15.4362   42.6484    7.3000 C.ar    1  UNL1        0.1230
     12 S          14.1907   44.1285    5.7089 S.2     1  UNL1       -0.0513
     13 N          14.1539   42.2069    7.3737 N.ar    1  UNL1       -0.2209
     14 O          16.2752   41.0435    8.9090 O.3     1  UNL1       -0.4739
     15 C          15.0358   39.5411   10.3369 C.3     1  UNL1        0.0512
     16 C          14.9872   40.4877    9.1514 C.3     1  UNL1        0.2056
     17 C           9.8435   41.2721    6.2416 C.3     1  UNL1        0.1876
     18 C           9.6078   42.1625    8.6311 C.2     1  UNL1        0.3137
     19 C           8.7113   42.8093   10.9339 C.3     1  UNL1        0.1168
     20 C           7.3350   42.7338    8.7272 C.3     1  UNL1        0.1309
     21 C           6.8459   44.1897    8.7822 C.3     1  UNL1        0.0272
     22 C           5.4760   44.3569    8.1258 C.3     1  UNL1        0.0021
     23 C           4.4636   43.4185    8.7712 C.3     1  UNL1        0.0001
     24 C           4.9133   41.9729    8.5977 C.3     1  UNL1        0.0021
     25 C           6.2729   41.7588    9.2618 C.3     1  UNL1        0.0272
     26 C           7.7882   42.3514    7.3382 C.2     1  UNL1        0.2490
     27 O          10.7783   41.8985    9.0161 O.2     1  UNL1       -0.2519
     28 O           7.0362   42.2937    6.3280 O.2     1  UNL1       -0.2727
     29 N           9.1754   42.0327    7.2896 N.am    1  UNL1       -0.2036
     30 N           8.5699   42.5938    9.5011 N.am    1  UNL1       -0.2572
@<TRIPOS>BOND
     1    15    16    1
     2    16    14    1
     3     5    14    1
     4     6     7   ar
     5     8     9   ar
     6     9    12   ar
     7    10    12   ar
     8    10     3    1
     9    17     1    1
    10    17    29    1
    11    18    30   am
    12    19    30    1
    13    20    30    1
    14    20    21    1
    15    20    26    1
    16    21    22    1
    17    22    23    1
    18    23    24    1
    19    24    25    1
    20    25    20    1
    21    26    29   am
    22    11    13   ar
    23    11     5   ar
    24     3     1   am
    25    29    18   am
    26     5     6   ar
    27     7     8   ar
    28    10    13   ar
    29     1     2    2
    30    18    27    2
    31    26    28    2
    32    11     9   ar
    33     3     4    1
@<TRIPOS>MOLECULE
MolPort-046-949-852 141560344 MCULE-9951375541 PubChem-46951964 ZINC000141560344
 30 33 0 0 0
SMALL
GASTEIGER

@<TRIPOS>ATOM
      1 C          11.2745   41.2689    5.9856 C.2     1  UNL1        0.2483
      2 O          11.8744   40.2137    6.3197 O.2     1  UNL1       -0.2728
      3 N          11.9333   42.5402    6.0113 N.am    1  UNL1       -0.2627
      4 H          11.3961   43.3229    5.7502 H       1  UNL1        0.1568
      5 C          16.1524   41.8154    8.2970 C.ar    1  UNL1        0.1566
      6 C          17.4392   42.3847    8.4012 C.ar    1  UNL1        0.0385
      7 C          17.7757   43.5401    7.6709 C.ar    1  UNL1        0.0037
      8 C          16.8349   44.1454    6.8247 C.ar    1  UNL1        0.0083
      9 C          15.5727   43.5665    6.7342 C.ar    1  UNL1        0.0527
     10 C          13.2954   42.7870    6.3788 C.ar    1  UNL1        0.1657
     11 C          15.2264   42.4279    7.4468 C.ar    1  UNL1        0.1230
     12 S          14.2604   44.0668    5.8176 S.2     1  UNL1       -0.0513
     13 N          13.9557   41.9897    7.2522 N.ar    1  UNL1       -0.2209
     14 O          15.7904   40.6658    9.0105 O.3     1  UNL1       -0.4739
     15 C          14.1390   39.8181   10.5554 C.3     1  UNL1        0.0512
     16 C          14.4487   40.2026    9.1201 C.3     1  UNL1        0.2056
     17 C           9.8607   41.1887    5.5210 C.3     1  UNL1        0.1876
     18 C           7.6131   41.9112    6.5131 C.2     1  UNL1        0.3137
     19 C           5.7909   43.0373    7.9048 C.3     1  UNL1        0.1168
     20 C           8.1980   42.4714    8.7144 C.3     1  UNL1        0.1309
     21 C           7.7752   41.6269    9.9268 C.3     1  UNL1        0.0272
     22 C           8.7924   41.7117   11.0642 C.3     1  UNL1        0.0021
     23 C           9.0159   43.1648   11.4650 C.3     1  UNL1        0.0001
     24 C           9.5488   43.9542   10.2755 C.3     1  UNL1        0.0021
     25 C           8.5475   43.9123    9.1218 C.3     1  UNL1        0.0272
     26 C           9.3282   41.8223    7.9514 C.2     1  UNL1        0.2490
     27 O           6.9378   41.8338    5.4520 O.2     1  UNL1       -0.2519
     28 O          10.4867   41.6301    8.4098 O.2     1  UNL1       -0.2727
     29 N           8.9512   41.4636    6.6257 N.am    1  UNL1       -0.2036
     30 N           7.1250   42.4848    7.7184 N.am    1  UNL1       -0.2572
@<TRIPOS>BOND
     1    15    16    1
     2    16    14    1
     3     5    14    1
     4     6     7   ar
     5     8     9   ar
     6     9    12   ar
     7    10    12   ar
     8    10     3    1
     9    17     1    1
    10    17    29    1
    11    18    30   am
    12    19    30    1
    13    20    30    1
    14    20    21    1
    15    20    26    1
    16    21    22    1
    17    22    23    1
    18    23    24    1
    19    24    25    1
    20    25    20    1
    21    26    29   am
    22    11    13   ar
    23    11     5   ar
    24     3     1   am
    25    29    18   am
    26     5     6   ar
    27     7     8   ar
    28    10    13   ar
    29     1     2    2
    30    18    27    2
    31    26    28    2
    32    11     9   ar
    33     3     4    1
@<TRIPOS>MOLECULE
MolPort-046-949-852 141560344 MCULE-9951375541 PubChem-46951964 ZINC000141560344
 30 33 0 0 0
SMALL
GASTEIGER

@<TRIPOS>ATOM
      1 C           9.5344   41.4957    6.8752 C.2     1  UNL1        0.2483
      2 O           9.5250   42.2143    7.9089 O.2     1  UNL1       -0.2728
      3 N          10.7194   40.8096    6.4559 N.am    1  UNL1       -0.2627
      4 H          10.6546   40.2778    5.6298 H       1  UNL1        0.1568
      5 C          15.2010   42.3408    7.5148 C.ar    1  UNL1        0.1566
      6 C          16.2880   42.0120    8.3522 C.ar    1  UNL1        0.0385
      7 C          16.2142   40.9125    9.2280 C.ar    1  UNL1        0.0037
      8 C          15.0552   40.1242    9.2833 C.ar    1  UNL1        0.0083
      9 C          13.9938   40.4671    8.4513 C.ar    1  UNL1        0.0527
     10 C          11.9895   40.8195    7.1179 C.ar    1  UNL1        0.1657
     11 C          14.0512   41.5479    7.5837 C.ar    1  UNL1        0.1230
     12 S          12.5029   39.7141    8.3005 S.2     1  UNL1       -0.0513
     13 N          12.9348   41.7478    6.8366 N.ar    1  UNL1       -0.2209
     14 O          15.2460   43.4295    6.6349 O.3     1  UNL1       -0.4739
     15 C          17.3968   43.8867    5.6363 C.3     1  UNL1        0.0512
     16 C          16.3216   44.3613    6.5968 C.3     1  UNL1        0.2056
     17 C           8.2780   41.3281    6.0915 C.3     1  UNL1        0.1876
     18 C           6.6765   43.1824    6.8365 C.2     1  UNL1        0.3137
     19 C           5.2308   44.7698    8.2203 C.3     1  UNL1        0.1168
     20 C           5.7671   42.2924    8.8069 C.3     1  UNL1        0.1309
     21 C           4.3076   41.8225    8.9100 C.3     1  UNL1        0.0272
     22 C           4.1439   40.6850    9.9173 C.3     1  UNL1        0.0021
     23 C           4.6768   41.1070   11.2811 C.3     1  UNL1        0.0001
     24 C           6.1569   41.4534   11.1743 C.3     1  UNL1        0.0021
     25 C           6.3607   42.6049   10.1905 C.3     1  UNL1        0.0272
     26 C           6.6187   41.3006    8.0505 C.2     1  UNL1        0.2490
     27 O           6.9838   44.0243    5.9507 O.2     1  UNL1       -0.2519
     28 O           6.8675   40.1266    8.4364 O.2     1  UNL1       -0.2727
     29 N           7.1424   41.8458    6.8435 N.am    1  UNL1       -0.2036
     30 N           5.8490   43.4791    7.9534 N.am    1  UNL1       -0.2572
@<TRIPOS>BOND
     1    15    16    1
     2    16    14    1
     3     5    14    1
     4     6     7   ar
     5     8     9   ar
     6     9    12   ar
     7    10    12   ar
     8    10     3    1
     9    17     1    1
    10    17    29    1
    11    18    30   am
    12    19    30    1
    13    20    30    1
    14    20    21    1
    15    20    26    1
    16    21    22    1
    17    22    23    1
    18    23    24    1
    19    24    25    1
    20    25    20    1
    21    26    29   am
    22    11    13   ar
    23    11     5   ar
    24     3     1   am
    25    29    18   am
    26     5     6   ar
    27     7     8   ar
    28    10    13   ar
    29     1     2    2
    30    18    27    2
    31    26    28    2
    32    11     9   ar
    33     3     4    1
@<TRIPOS>MOLECULE
MolPort-046-949-852 141560344 MCULE-9951375541 PubChem-46951964 ZINC000141560344
 30 33 0 0 0
SMALL
GASTEIGER

@<TRIPOS>ATOM
      1 C          11.3760   41.9598    9.6020 C.2     1  UNL1        0.2483
      2 O          11.5202   43.1696    9.9188 O.2     1  UNL1       -0.2728
      3 N          12.2422   41.3306    8.6507 N.am    1  UNL1       -0.2627
      4 H          12.0595   40.3859    8.4423 H       1  UNL1        0.1568
      5 C          16.8525   42.6416    7.8909 C.ar    1  UNL1        0.1566
      6 C          17.6362   43.3534    6.9582 C.ar    1  UNL1        0.0385
      7 C          17.0472   43.9355    5.8199 C.ar    1  UNL1        0.0037
      8 C          15.6681   43.8163    5.5932 C.ar    1  UNL1        0.0083
      9 C          14.9139   43.1079    6.5237 C.ar    1  UNL1        0.0527
     10 C          13.3475   41.9382    7.9722 C.ar    1  UNL1        0.1657
     11 C          15.4797   42.5282    7.6497 C.ar    1  UNL1        0.1230
     12 S          13.2637   42.8090    6.5166 S.2     1  UNL1       -0.0513
     13 N          14.6089   41.8749    8.4617 N.ar    1  UNL1       -0.2209
     14 O          17.4115   42.0510    9.0313 O.3     1  UNL1       -0.4739
     15 C          17.0137   39.9548   10.1627 C.3     1  UNL1        0.0512
     16 C          17.8047   40.6841    9.0921 C.3     1  UNL1        0.2056
     17 C          10.3042   41.1569   10.2558 C.3     1  UNL1        0.1876
     18 C           7.8070   41.5585   10.6568 C.2     1  UNL1        0.3137
     19 C           5.2712   41.7164   10.3925 C.3     1  UNL1        0.1168
     20 C           7.0248   42.0255    8.4955 C.3     1  UNL1        0.1309
     21 C           6.5628   43.4262    8.0637 C.3     1  UNL1        0.0272
     22 C           6.8025   43.6727    6.5747 C.3     1  UNL1        0.0021
     23 C           6.1173   42.5943    5.7443 C.3     1  UNL1        0.0001
     24 C           6.6793   41.2253    6.1078 C.3     1  UNL1        0.0021
     25 C           6.4389   40.9311    7.5880 C.3     1  UNL1        0.0272
     26 C           8.5305   41.9349    8.5704 C.2     1  UNL1        0.2490
     27 O           7.7924   41.2633   11.8818 O.2     1  UNL1       -0.2519
     28 O           9.3067   42.0498    7.5838 O.2     1  UNL1       -0.2727
     29 N           8.9925   41.6774    9.8927 N.am    1  UNL1       -0.2036
     30 N           6.6342   41.7786    9.8847 N.am    1  UNL1       -0.2572
@<TRIPOS>BOND
     1    15    16    1
     2    16    14    1
     3     5    14    1
     4     6     7   ar
     5     8     9   ar
     6     9    12   ar
     7    10    12   ar
     8    10     3    1
     9    17     1    1
    10    17    29    1
    11    18    30   am
    12    19    30    1
    13    20    30    1
    14    20    21    1
    15    20    26    1
    16    21    22    1
    17    22    23    1
    18    23    24    1
    19    24    25    1
    20    25    20    1
    21    26    29   am
    22    11    13   ar
    23    11     5   ar
    24     3     1   am
    25    29    18   am
    26     5     6   ar
    27     7     8   ar
    28    10    13   ar
    29     1     2    2
    30    18    27    2
    31    26    28    2
    32    11     9   ar
    33     3     4    1
@<TRIPOS>MOLECULE
MolPort-046-949-852 141560344 MCULE-9951375541 PubChem-46951964 ZINC000141560344
 30 33 0 0 0
SMALL
GASTEIGER

@<TRIPOS>ATOM
      1 C          11.3972   41.5804    9.4311 C.2     1  UNL1        0.2483
      2 O          11.3896   42.8055    9.7206 O.2     1  UNL1       -0.2728
      3 N          12.3932   41.0261    8.5640 N.am    1  UNL1       -0.2627
      4 H          12.3267   40.0629    8.3718 H       1  UNL1        0.1568
      5 C          16.9941   42.3471    7.7659 C.ar    1  UNL1        0.1566
      6 C          17.7444   43.2170    6.9466 C.ar    1  UNL1        0.0385
      7 C          17.1076   44.0382    5.9971 C.ar    1  UNL1        0.0037
      8 C          15.7131   44.0043    5.8489 C.ar    1  UNL1        0.0083
      9 C          14.9923   43.1376    6.6647 C.ar    1  UNL1        0.0527
     10 C          13.4763   41.7329    7.9486 C.ar    1  UNL1        0.1657
     11 C          15.6053   42.3218    7.6043 C.ar    1  UNL1        0.1230
     12 S          13.3344   42.8893    6.7131 S.2     1  UNL1       -0.0513
     13 N          14.7628   41.5365    8.3240 N.ar    1  UNL1       -0.2209
     14 O          17.6009   41.5179    8.7177 O.3     1  UNL1       -0.4739
     15 C          17.7469   39.6210   10.2053 C.3     1  UNL1        0.0512
     16 C          16.8683   40.7252    9.6460 C.3     1  UNL1        0.2056
     17 C          10.3697   40.6825   10.0302 C.3     1  UNL1        0.1876
     18 C           8.9353   40.2731    7.9487 C.2     1  UNL1        0.3137
     19 C           7.3427   40.5477    5.9704 C.3     1  UNL1        0.1168
     20 C           7.1824   41.8034    8.2435 C.3     1  UNL1        0.1309
     21 C           5.7468   41.3681    8.5772 C.3     1  UNL1        0.0272
     22 C           5.0093   42.4196    9.4054 C.3     1  UNL1        0.0021
     23 C           5.0165   43.7610    8.6826 C.3     1  UNL1        0.0001
     24 C           6.4517   44.2273    8.4703 C.3     1  UNL1        0.0021
     25 C           7.2183   43.2108    7.6251 C.3     1  UNL1        0.0272
     26 C           8.0877   41.7051    9.4484 C.2     1  UNL1        0.2490
     27 O           9.7050   39.4509    7.3835 O.2     1  UNL1       -0.2519
     28 O           7.9639   42.3930   10.4976 O.2     1  UNL1       -0.2727
     29 N           9.1313   40.7535    9.2656 N.am    1  UNL1       -0.2036
     30 N           7.7930   40.8424    7.3232 N.am    1  UNL1       -0.2572
@<TRIPOS>BOND
     1    15    16    1
     2    16    14    1
     3     5    14    1
     4     6     7   ar
     5     8     9   ar
     6     9    12   ar
     7    10    12   ar
     8    10     3    1
     9    17     1    1
    10    17    29    1
    11    18    30   am
    12    19    30    1
    13    20    30    1
    14    20    21    1
    15    20    26    1
    16    21    22    1
    17    22    23    1
    18    23    24    1
    19    24    25    1
    20    25    20    1
    21    26    29   am
    22    11    13   ar
    23    11     5   ar
    24     3     1   am
    25    29    18   am
    26     5     6   ar
    27     7     8   ar
    28    10    13   ar
    29     1     2    2
    30    18    27    2
    31    26    28    2
    32    11     9   ar
    33     3     4    1
@<TRIPOS>MOLECULE
MolPort-046-949-852 141560344 MCULE-9951375541 PubChem-46951964 ZINC000141560344
 30 33 0 0 0
SMALL
GASTEIGER

@<TRIPOS>ATOM
      1 C           9.8679   41.5196    6.6045 C.2     1  UNL1        0.2483
      2 O           9.8264   42.3897    7.5134 O.2     1  UNL1       -0.2728
      3 N          11.1094   40.9478    6.1770 N.am    1  UNL1       -0.2627
      4 H          11.0647   40.2837    5.4515 H       1  UNL1        0.1568
      5 C          15.0397   40.4060    8.9716 C.ar    1  UNL1        0.1566
      6 C          16.2877   41.0176    9.2153 C.ar    1  UNL1        0.0385
      7 C          16.6770   42.1666    8.5015 C.ar    1  UNL1        0.0037
      8 C          15.8287   42.7234    7.5330 C.ar    1  UNL1        0.0083
      9 C          14.6037   42.1034    7.3061 C.ar    1  UNL1        0.0527
     10 C          12.4094   41.2452    6.6993 C.ar    1  UNL1        0.1657
     11 C          14.2064   40.9704    8.0008 C.ar    1  UNL1        0.1230
     12 S          13.3983   42.5420    6.2258 S.2     1  UNL1       -0.0513
     13 N          12.9816   40.4883    7.6659 N.ar    1  UNL1       -0.2209
     14 O          14.6269   39.2616    9.6656 O.3     1  UNL1       -0.4739
     15 C          15.9611   37.2949   10.0950 C.3     1  UNL1        0.0512
     16 C          14.8984   37.9365    9.2216 C.3     1  UNL1        0.2056
     17 C           8.5964   41.0501    5.9849 C.3     1  UNL1        0.1876
     18 C           6.9284   42.9118    6.5419 C.2     1  UNL1        0.3137
     19 C           5.4403   44.5924    7.7610 C.3     1  UNL1        0.1168
     20 C           6.0978   42.2283    8.6262 C.3     1  UNL1        0.1309
     21 C           4.6629   41.7134    8.8204 C.3     1  UNL1        0.0272
     22 C           4.5695   40.6997    9.9602 C.3     1  UNL1        0.0021
     23 C           5.1092   41.3049   11.2503 C.3     1  UNL1        0.0001
     24 C           6.5700   41.6978   11.0666 C.3     1  UNL1        0.0021
     25 C           6.7033   42.7299    9.9476 C.3     1  UNL1        0.0272
     26 C           6.9780   41.1892    7.9732 C.2     1  UNL1        0.2490
     27 O           7.1809   43.6530    5.5545 O.2     1  UNL1       -0.2519
     28 O           7.2863   40.0817    8.4905 O.2     1  UNL1       -0.2727
     29 N           7.4535   41.6065    6.6973 N.am    1  UNL1       -0.2036
     30 N           6.1102   43.3059    7.6352 N.am    1  UNL1       -0.2572
@<TRIPOS>BOND
     1    15    16    1
     2    16    14    1
     3     5    14    1
     4     6     7   ar
     5     8     9   ar
     6     9    12   ar
     7    10    12   ar
     8    10     3    1
     9    17     1    1
    10    17    29    1
    11    18    30   am
    12    19    30    1
    13    20    30    1
    14    20    21    1
    15    20    26    1
    16    21    22    1
    17    22    23    1
    18    23    24    1
    19    24    25    1
    20    25    20    1
    21    26    29   am
    22    11    13   ar
    23    11     5   ar
    24     3     1   am
    25    29    18   am
    26     5     6   ar
    27     7     8   ar
    28    10    13   ar
    29     1     2    2
    30    18    27    2
    31    26    28    2
    32    11     9   ar
    33     3     4    1
@<TRIPOS>MOLECULE
MolPort-046-949-852 141560344 MCULE-9951375541 PubChem-46951964 ZINC000141560344
 30 33 0 0 0
SMALL
GASTEIGER

@<TRIPOS>ATOM
      1 C          12.0798   39.8139    8.4163 C.2     1  UNL1        0.2483
      2 O          12.8546   38.9826    7.8747 O.2     1  UNL1       -0.2728
      3 N          12.3849   41.2130    8.4366 N.am    1  UNL1       -0.2627
      4 H          11.7387   41.8008    8.8906 H       1  UNL1        0.1568
      5 C          17.0577   42.4474    7.9984 C.ar    1  UNL1        0.1566
      6 C          17.9023   43.2117    7.1657 C.ar    1  UNL1        0.0385
      7 C          17.3827   43.9040    6.0557 C.ar    1  UNL1        0.0037
      8 C          16.0131   43.8446    5.7581 C.ar    1  UNL1        0.0083
      9 C          15.1982   43.0832    6.5903 C.ar    1  UNL1        0.0527
     10 C          13.5361   41.8427    7.8624 C.ar    1  UNL1        0.1657
     11 C          15.6954   42.3949    7.6871 C.ar    1  UNL1        0.1230
     12 S          13.5431   42.8344    6.4839 S.2     1  UNL1       -0.0513
     13 N          14.7709   41.7017    8.4008 N.ar    1  UNL1       -0.2209
     14 O          17.5472   41.7473    9.1084 O.3     1  UNL1       -0.4739
     15 C          17.2327   39.8113   10.5174 C.3     1  UNL1        0.0512
     16 C          17.6541   40.3284    9.1540 C.3     1  UNL1        0.2056
     17 C          10.8025   39.3367    9.0180 C.3     1  UNL1        0.1876
     18 C           9.8165   40.9100   10.7817 C.2     1  UNL1        0.3137
     19 C           8.2343   42.3395   12.1882 C.3     1  UNL1        0.1168
     20 C           7.9982   41.8573    9.6424 C.3     1  UNL1        0.1309
     21 C           7.9738   43.3268    9.1928 C.3     1  UNL1        0.0272
     22 C           7.1380   43.5231    7.9285 C.3     1  UNL1        0.0021
     23 C           5.7242   42.9968    8.1435 C.3     1  UNL1        0.0001
     24 C           5.7696   41.5092    8.4709 C.3     1  UNL1        0.0021
     25 C           6.5797   41.2727    9.7449 C.3     1  UNL1        0.0272
     26 C           8.8800   41.0171    8.7495 C.2     1  UNL1        0.2490
     27 O          10.5724   40.5770   11.7333 O.2     1  UNL1       -0.2519
     28 O           8.6613   40.7951    7.5279 O.2     1  UNL1       -0.2727
     29 N           9.9940   40.4701    9.4481 N.am    1  UNL1       -0.2036
     30 N           8.6754   41.7435   10.9354 N.am    1  UNL1       -0.2572
@<TRIPOS>BOND
     1    15    16    1
     2    16    14    1
     3     5    14    1
     4     6     7   ar
     5     8     9   ar
     6     9    12   ar
     7    10    12   ar
     8    10     3    1
     9    17     1    1
    10    17    29    1
    11    18    30   am
    12    19    30    1
    13    20    30    1
    14    20    21    1
    15    20    26    1
    16    21    22    1
    17    22    23    1
    18    23    24    1
    19    24    25    1
    20    25    20    1
    21    26    29   am
    22    11    13   ar
    23    11     5   ar
    24     3     1   am
    25    29    18   am
    26     5     6   ar
    27     7     8   ar
    28    10    13   ar
    29     1     2    2
    30    18    27    2
    31    26    28    2
    32    11     9   ar
    33     3     4    1
@<TRIPOS>MOLECULE
MolPort-046-949-852 141560344 MCULE-9951375541 PubChem-46951964 ZINC000141560344
 30 33 0 0 0
SMALL
GASTEIGER

@<TRIPOS>ATOM
      1 C          11.4885   41.6648    6.2767 C.2     1  UNL1        0.2483
      2 O          11.8354   41.5375    5.0732 O.2     1  UNL1       -0.2728
      3 N          12.3820   42.2063    7.2562 N.am    1  UNL1       -0.2627
      4 H          12.0457   42.2622    8.1797 H       1  UNL1        0.1568
      5 C          17.1402   42.7281    8.0547 C.ar    1  UNL1        0.1566
      6 C          18.2637   43.3864    7.5111 C.ar    1  UNL1        0.0385
      7 C          18.1391   44.1933    6.3644 C.ar    1  UNL1        0.0037
      8 C          16.8930   44.3557    5.7412 C.ar    1  UNL1        0.0083
      9 C          15.7985   43.6957    6.2916 C.ar    1  UNL1        0.0527
     10 C          13.7159   42.6747    7.0266 C.ar    1  UNL1        0.1657
     11 C          15.9054   42.8968    7.4205 C.ar    1  UNL1        0.1230
     12 S          14.2047   43.7072    5.7700 S.2     1  UNL1       -0.0513
     13 N          14.7451   42.3255    7.8350 N.ar    1  UNL1       -0.2209
     14 O          17.2348   41.9183    9.1935 O.3     1  UNL1       -0.4739
     15 C          17.4326   39.8003   10.3369 C.3     1  UNL1        0.0512
     16 C          16.7197   40.5926    9.2562 C.3     1  UNL1        0.2056
     17 C          10.1084   41.2764    6.6833 C.3     1  UNL1        0.1876
     18 C           9.5293   41.1175    9.1728 C.2     1  UNL1        0.3137
     19 C           9.6443   40.8178   11.7070 C.3     1  UNL1        0.1168
     20 C          11.1186   39.5806    9.9561 C.3     1  UNL1        0.1309
     21 C          10.7489   38.1562   10.3990 C.3     1  UNL1        0.0272
     22 C          11.8918   37.1698   10.1614 C.3     1  UNL1        0.0021
     23 C          13.1560   37.6472   10.8655 C.3     1  UNL1        0.0001
     24 C          13.5682   39.0100   10.3223 C.3     1  UNL1        0.0021
     25 C          12.4580   40.0324   10.5615 C.3     1  UNL1        0.0272
     26 C          11.1185   39.7130    8.4517 C.2     1  UNL1        0.2490
     27 O           8.6395   42.0097    9.1871 O.2     1  UNL1       -0.2519
     28 O          11.9078   39.1072    7.6775 O.2     1  UNL1       -0.2727
     29 N          10.1313   40.6290    7.9885 N.am    1  UNL1       -0.2036
     30 N          10.0595   40.5136   10.3451 N.am    1  UNL1       -0.2572
@<TRIPOS>BOND
     1    15    16    1
     2    16    14    1
     3     5    14    1
     4     6     7   ar
     5     8     9   ar
     6     9    12   ar
     7    10    12   ar
     8    10     3    1
     9    17     1    1
    10    17    29    1
    11    18    30   am
    12    19    30    1
    13    20    30    1
    14    20    21    1
    15    20    26    1
    16    21    22    1
    17    22    23    1
    18    23    24    1
    19    24    25    1
    20    25    20    1
    21    26    29   am
    22    11    13   ar
    23    11     5   ar
    24     3     1   am
    25    29    18   am
    26     5     6   ar
    27     7     8   ar
    28    10    13   ar
    29     1     2    2
    30    18    27    2
    31    26    28    2
    32    11     9   ar
    33     3     4    1
@<TRIPOS>MOLECULE
MolPort-046-949-852 141560344 MCULE-9951375541 PubChem-46951964 ZINC000141560344
 30 33 0 0 0
SMALL
GASTEIGER

@<TRIPOS>ATOM
      1 C          11.1600   40.9661    6.9702 C.2     1  UNL1        0.2483
      2 O          12.0082   41.6291    6.3177 O.2     1  UNL1       -0.2728
      3 N          11.5486   40.1419    8.0750 N.am    1  UNL1       -0.2627
      4 H          10.8318   39.6418    8.5283 H       1  UNL1        0.1568
      5 C          16.1994   41.2516    8.9051 C.ar    1  UNL1        0.1566
      6 C          17.3407   40.7245    9.5458 C.ar    1  UNL1        0.0385
      7 C          17.2845   39.4841   10.2088 C.ar    1  UNL1        0.0037
      8 C          16.0896   38.7502   10.2442 C.ar    1  UNL1        0.0083
      9 C          14.9752   39.2891    9.6086 C.ar    1  UNL1        0.0527
     10 C          12.8756   39.9722    8.5865 C.ar    1  UNL1        0.1657
     11 C          15.0146   40.5103    8.9519 C.ar    1  UNL1        0.1230
     12 S          13.4325   38.6430    9.4847 S.2     1  UNL1       -0.0513
     13 N          13.8449   40.8952    8.3789 N.ar    1  UNL1       -0.2209
     14 O          16.2257   42.4835    8.2393 O.3     1  UNL1       -0.4739
     15 C          17.2551   44.1906    6.8760 C.3     1  UNL1        0.0512
     16 C          17.4119   43.2492    8.0562 C.3     1  UNL1        0.2056
     17 C           9.7181   41.0682    6.6075 C.3     1  UNL1        0.1876
     18 C           9.5774   42.6517    8.6152 C.2     1  UNL1        0.3137
     19 C           8.7954   43.9367   10.6797 C.3     1  UNL1        0.1168
     20 C           7.2759   43.0840    8.7475 C.3     1  UNL1        0.1309
     21 C           6.6656   44.4499    8.3960 C.3     1  UNL1        0.0272
     22 C           5.2426   44.3172    7.8548 C.3     1  UNL1        0.0021
     23 C           4.3659   43.5707    8.8529 C.3     1  UNL1        0.0001
     24 C           4.9277   42.1746    9.0930 C.3     1  UNL1        0.0021
     25 C           6.3451   42.2648    9.6569 C.3     1  UNL1        0.0272
     26 C           7.6599   42.3109    7.5083 C.2     1  UNL1        0.2490
     27 O          10.7913   42.5949    8.9487 O.2     1  UNL1       -0.2519
     28 O           6.8452   41.8912    6.6426 O.2     1  UNL1       -0.2727
     29 N           9.0626   42.0786    7.4277 N.am    1  UNL1       -0.2036
     30 N           8.5708   43.2714    9.4044 N.am    1  UNL1       -0.2572
@<TRIPOS>BOND
     1    15    16    1
     2    16    14    1
     3     5    14    1
     4     6     7   ar
     5     8     9   ar
     6     9    12   ar
     7    10    12   ar
     8    10     3    1
     9    17     1    1
    10    17    29    1
    11    18    30   am
    12    19    30    1
    13    20    30    1
    14    20    21    1
    15    20    26    1
    16    21    22    1
    17    22    23    1
    18    23    24    1
    19    24    25    1
    20    25    20    1
    21    26    29   am
    22    11    13   ar
    23    11     5   ar
    24     3     1   am
    25    29    18   am
    26     5     6   ar
    27     7     8   ar
    28    10    13   ar
    29     1     2    2
    30    18    27    2
    31    26    28    2
    32    11     9   ar
    33     3     4    1
@<TRIPOS>MOLECULE
MolPort-046-949-852 141560344 MCULE-9951375541 PubChem-46951964 ZINC000141560344
 30 33 0 0 0
SMALL
GASTEIGER

@<TRIPOS>ATOM
      1 C          10.5710   40.6239    6.5948 C.2     1  UNL1        0.2483
      2 O          10.9277   39.4179    6.5393 O.2     1  UNL1       -0.2728
      3 N          11.4153   41.6243    7.1755 N.am    1  UNL1       -0.2627
      4 H          11.0632   42.5435    7.1965 H       1  UNL1        0.1568
      5 C          16.1504   42.4219    7.8780 C.ar    1  UNL1        0.1566
      6 C          17.2373   41.9077    8.6164 C.ar    1  UNL1        0.0385
      7 C          17.0649   40.8087    9.4788 C.ar    1  UNL1        0.0037
      8 C          15.8061   40.2057    9.6194 C.ar    1  UNL1        0.0083
      9 C          14.7471   40.7300    8.8844 C.ar    1  UNL1        0.0527
     10 C          12.7207   41.4215    7.7289 C.ar    1  UNL1        0.1657
     11 C          14.9011   41.8127    8.0312 C.ar    1  UNL1        0.1230
     12 S          13.1504   40.2184    8.8478 S.2     1  UNL1       -0.0513
     13 N          13.7726   42.2017    7.3832 N.ar    1  UNL1       -0.2209
     14 O          16.2924   43.5149    7.0137 O.3     1  UNL1       -0.4739
     15 C          15.1576   44.0147    4.9413 C.3     1  UNL1        0.0512
     16 C          15.1888   44.2123    6.4459 C.3     1  UNL1        0.2056
     17 C           9.2585   41.0243    6.0135 C.3     1  UNL1        0.1876
     18 C           7.5805   42.7397    6.9079 C.2     1  UNL1        0.3137
     19 C           6.3688   44.4761    8.3369 C.3     1  UNL1        0.1168
     20 C           7.8340   42.5199    9.2293 C.3     1  UNL1        0.1309
     21 C           6.7545   41.8953   10.1274 C.3     1  UNL1        0.0272
     22 C           7.3581   41.2080   11.3516 C.3     1  UNL1        0.0021
     23 C           8.2179   42.1901   12.1378 C.3     1  UNL1        0.0001
     24 C           9.3522   42.7038   11.2594 C.3     1  UNL1        0.0021
     25 C           8.7883   43.4191   10.0324 C.3     1  UNL1        0.0272
     26 C           8.5881   41.4674    8.4519 C.2     1  UNL1        0.2490
     27 O           7.2410   43.2258    5.7960 O.2     1  UNL1       -0.2519
     28 O           9.3197   40.5800    8.9683 O.2     1  UNL1       -0.2727
     29 N           8.4040   41.5967    7.0457 N.am    1  UNL1       -0.2036
     30 N           7.2038   43.2966    8.1601 N.am    1  UNL1       -0.2572
@<TRIPOS>BOND
     1    15    16    1
     2    16    14    1
     3     5    14    1
     4     6     7   ar
     5     8     9   ar
     6     9    12   ar
     7    10    12   ar
     8    10     3    1
     9    17     1    1
    10    17    29    1
    11    18    30   am
    12    19    30    1
    13    20    30    1
    14    20    21    1
    15    20    26    1
    16    21    22    1
    17    22    23    1
    18    23    24    1
    19    24    25    1
    20    25    20    1
    21    26    29   am
    22    11    13   ar
    23    11     5   ar
    24     3     1   am
    25    29    18   am
    26     5     6   ar
    27     7     8   ar
    28    10    13   ar
    29     1     2    2
    30    18    27    2
    31    26    28    2
    32    11     9   ar
    33     3     4    1
