@<TRIPOS>MOLECULE
MolPort-019-898-526 CSSS00159553217 MCULE-8781269075 PubChem-56756144
 29 31 0 0 0
SMALL
GASTEIGER

@<TRIPOS>ATOM
      1 C          10.5892   39.4552    5.4217 C.ar    1  UNL1        0.1326
      2 C          10.9764   39.3376    4.1001 C.ar    1  UNL1        0.0565
      3 C           9.7678   39.2375    3.4193 C.ar    1  UNL1        0.1230
      4 N           8.7439   39.2944    4.2972 N.ar    1  UNL1       -0.1666
      5 N           9.2525   39.4300    5.5088 N.ar    1  UNL1       -0.2394
      6 C           8.4725   39.5110    6.7409 C.3     1  UNL1        0.1093
      7 C           6.9709   39.6139    6.4394 C.3     1  UNL1        0.0418
      8 C           6.5058   41.0377    6.0796 C.3     1  UNL1        0.0741
      9 C           8.1104   41.8833    7.6115 C.3     1  UNL1        0.0741
     10 C           8.9908   40.6330    7.6539 C.3     1  UNL1        0.0418
     11 N           7.5478   42.0501    6.2771 N.3     1  UNL1       -0.2725
     12 C           6.8963   43.3499    6.2509 C.3     1  UNL1        0.0747
     13 C           6.7722   43.9066    7.6601 C.3     1  UNL1        0.0490
     14 C           5.3465   44.3501    7.9274 C.3     1  UNL1        0.1386
     15 O           5.0179   44.0820    9.2550 O.3     1  UNL1       -0.3819
     16 H           5.0970   43.1297    9.4217 H       1  UNL1        0.2104
     17 C          12.1177   40.7897    6.9649 C.2     1  UNL1        0.2587
     18 O          11.9823   41.8577    6.3114 O.2     1  UNL1       -0.2717
     19 N          11.4542   39.5866    6.5568 N.am    1  UNL1       -0.2673
     20 H          11.6055   38.7816    7.1030 H       1  UNL1        0.1563
     21 C          12.9850   40.7867    8.1835 C.3     1  UNL1        0.2135
     22 C          14.2664   41.5280    7.9518 C.ar    1  UNL1        0.0134
     23 C          14.3018   42.5490    6.9957 C.ar    1  UNL1       -0.0015
     24 C          15.4867   43.2539    6.7633 C.ar    1  UNL1       -0.0002
     25 C          16.6412   42.9395    7.4862 C.ar    1  UNL1       -0.0000
     26 C          16.6118   41.9197    8.4418 C.ar    1  UNL1       -0.0002
     27 C          15.4277   41.2143    8.6745 C.ar    1  UNL1       -0.0015
     28 C          12.0979   40.2302   10.1356 C.3     1  UNL1        0.1751
     29 O          12.2959   41.3148    9.2794 O.3     1  UNL1       -0.3400
@<TRIPOS>BOND
     1    28    29    1
     2    21    29    1
     3    21    17    1
     4    21    22    1
     5    17    19   am
     6     2     3   ar
     7     6     5    1
     8     6     7    1
     9     7     8    1
    10     8    11    1
    11    12    11    1
    12    12    13    1
    13    13    14    1
    14    14    15    1
    15     9    11    1
    16     9    10    1
    17    10     6    1
    18    23    24   ar
    19    25    26   ar
    20    27    22   ar
    21    19     1    1
    22     5     4   ar
    23     5     1   ar
    24    17    18    2
    25     1     2   ar
    26     3     4   ar
    27    22    23   ar
    28    24    25   ar
    29    26    27   ar
    30    15    16    1
    31    19    20    1
@<TRIPOS>MOLECULE
MolPort-019-898-526 CSSS00159553217 MCULE-8781269075 PubChem-56756144
 29 31 0 0 0
SMALL
GASTEIGER

@<TRIPOS>ATOM
      1 C          10.4408   39.5756    5.5871 C.ar    1  UNL1        0.1326
      2 C          10.9363   39.4816    4.3002 C.ar    1  UNL1        0.0565
      3 C           9.8113   39.1672    3.5454 C.ar    1  UNL1        0.1230
      4 N           8.7306   39.0852    4.3501 N.ar    1  UNL1       -0.1666
      5 N           9.1223   39.3380    5.5861 N.ar    1  UNL1       -0.2394
      6 C           8.2523   39.3299    6.7591 C.3     1  UNL1        0.1093
      7 C           6.7927   39.5991    6.3673 C.3     1  UNL1        0.0418
      8 C           6.4685   41.0916    6.1668 C.3     1  UNL1        0.0741
      9 C           8.0017   41.5958    7.9079 C.3     1  UNL1        0.0741
     10 C           8.7778   40.2790    7.8473 C.3     1  UNL1        0.0418
     11 N           7.5648   41.9774    6.5706 N.3     1  UNL1       -0.2725
     12 C           7.0186   43.3214    6.6702 C.3     1  UNL1        0.0747
     13 C           6.0829   43.4237    7.8640 C.3     1  UNL1        0.0490
     14 C           5.0549   44.5153    7.6351 C.3     1  UNL1        0.1386
     15 O           4.1894   44.5742    8.7260 O.3     1  UNL1       -0.3819
     16 H           3.7385   43.7213    8.8274 H       1  UNL1        0.2104
     17 C          12.0543   41.0092    6.9436 C.2     1  UNL1        0.2587
     18 O          12.2259   41.8418    6.0144 O.2     1  UNL1       -0.2717
     19 N          11.1896   39.8793    6.7708 N.am    1  UNL1       -0.2673
     20 H          11.1025   39.2588    7.5301 H       1  UNL1        0.1563
     21 C          12.7671   41.2111    8.2430 C.3     1  UNL1        0.2135
     22 C          11.8119   41.5209    9.3551 C.ar    1  UNL1        0.0134
     23 C          11.5525   40.5457   10.3246 C.ar    1  UNL1       -0.0015
     24 C          10.6649   40.8133   11.3711 C.ar    1  UNL1       -0.0002
     25 C          10.0326   42.0576   11.4516 C.ar    1  UNL1       -0.0000
     26 C          10.2873   43.0351   10.4853 C.ar    1  UNL1       -0.0002
     27 C          11.1743   42.7682    9.4385 C.ar    1  UNL1       -0.0015
     28 C          14.8212   40.6063    8.8103 C.3     1  UNL1        0.1751
     29 O          13.5481   40.0941    8.5547 O.3     1  UNL1       -0.3400
@<TRIPOS>BOND
     1    28    29    1
     2    21    29    1
     3    21    17    1
     4    21    22    1
     5    17    19   am
     6     2     3   ar
     7     6     5    1
     8     6     7    1
     9     7     8    1
    10     8    11    1
    11    12    11    1
    12    12    13    1
    13    13    14    1
    14    14    15    1
    15     9    11    1
    16     9    10    1
    17    10     6    1
    18    23    24   ar
    19    25    26   ar
    20    27    22   ar
    21    19     1    1
    22     5     4   ar
    23     5     1   ar
    24    17    18    2
    25     1     2   ar
    26     3     4   ar
    27    22    23   ar
    28    24    25   ar
    29    26    27   ar
    30    15    16    1
    31    19    20    1
@<TRIPOS>MOLECULE
MolPort-019-898-526 CSSS00159553217 MCULE-8781269075 PubChem-56756144
 29 31 0 0 0
SMALL
GASTEIGER

@<TRIPOS>ATOM
      1 C           9.7290   40.9320    9.8866 C.ar    1  UNL1        0.1326
      2 C           9.8356   41.2032   11.2377 C.ar    1  UNL1        0.0565
      3 C          11.1512   40.8606   11.5310 C.ar    1  UNL1        0.1230
      4 N          11.7669   40.4181   10.4141 N.ar    1  UNL1       -0.1666
      5 N          10.8969   40.4686    9.4214 N.ar    1  UNL1       -0.2394
      6 C          11.1688   40.0566    8.0470 C.3     1  UNL1        0.1093
      7 C          12.5595   39.4182    7.9255 C.3     1  UNL1        0.0418
      8 C          13.7057   40.4419    7.8201 C.3     1  UNL1        0.0741
      9 C          12.2466   41.8580    6.5944 C.3     1  UNL1        0.0741
     10 C          10.9403   41.2153    7.0639 C.3     1  UNL1        0.0418
     11 N          13.2326   41.8213    7.6675 N.3     1  UNL1       -0.2725
     12 C          14.3661   42.6198    7.2297 C.3     1  UNL1        0.0747
     13 C          13.9206   43.6524    6.2067 C.3     1  UNL1        0.0490
     14 C          15.1251   44.2646    5.5175 C.3     1  UNL1        0.1386
     15 O          15.2097   45.6168    5.8443 O.3     1  UNL1       -0.3819
     16 H          14.4041   46.0711    5.5518 H       1  UNL1        0.2104
     17 C           7.8194   42.3224    8.9281 C.2     1  UNL1        0.2587
     18 O           8.1536   43.3634    9.5532 O.2     1  UNL1       -0.2717
     19 N           8.5645   41.1063    9.0695 N.am    1  UNL1       -0.2673
     20 H           8.2495   40.3238    8.5620 H       1  UNL1        0.1563
     21 C           6.6265   42.3658    8.0267 C.3     1  UNL1        0.2135
     22 C           5.3503   42.1797    8.7895 C.ar    1  UNL1        0.0134
     23 C           5.0450   40.9185    9.3131 C.ar    1  UNL1       -0.0015
     24 C           3.8598   40.7222   10.0283 C.ar    1  UNL1       -0.0002
     25 C           2.9748   41.7870   10.2219 C.ar    1  UNL1       -0.0000
     26 C           3.2742   43.0488    9.7001 C.ar    1  UNL1       -0.0002
     27 C           4.4588   43.2457    8.9846 C.ar    1  UNL1       -0.0015
     28 C           6.7133   43.1694    5.9643 C.3     1  UNL1        0.1751
     29 O           6.6020   43.5598    7.2998 O.3     1  UNL1       -0.3400
@<TRIPOS>BOND
     1    28    29    1
     2    21    29    1
     3    21    17    1
     4    21    22    1
     5    17    19   am
     6     2     3   ar
     7     6     5    1
     8     6     7    1
     9     7     8    1
    10     8    11    1
    11    12    11    1
    12    12    13    1
    13    13    14    1
    14    14    15    1
    15     9    11    1
    16     9    10    1
    17    10     6    1
    18    23    24   ar
    19    25    26   ar
    20    27    22   ar
    21    19     1    1
    22     5     4   ar
    23     5     1   ar
    24    17    18    2
    25     1     2   ar
    26     3     4   ar
    27    22    23   ar
    28    24    25   ar
    29    26    27   ar
    30    15    16    1
    31    19    20    1
@<TRIPOS>MOLECULE
MolPort-019-898-526 CSSS00159553217 MCULE-8781269075 PubChem-56756144
 29 31 0 0 0
SMALL
GASTEIGER

@<TRIPOS>ATOM
      1 C          12.2602   41.4311    8.6747 C.ar    1  UNL1        0.1326
      2 C          13.0805   41.9937    7.7152 C.ar    1  UNL1        0.0565
      3 C          14.3224   41.4279    7.9828 C.ar    1  UNL1        0.1230
      4 N          14.2236   40.5879    9.0349 N.ar    1  UNL1       -0.1666
      5 N          12.9680   40.5941    9.4452 N.ar    1  UNL1       -0.2394
      6 C          12.4521   39.8277   10.5763 C.3     1  UNL1        0.1093
      7 C          13.5937   39.3275   11.4725 C.3     1  UNL1        0.0418
      8 C          14.2791   38.0506   10.9506 C.3     1  UNL1        0.0741
      9 C          12.1729   37.3307   10.1249 C.3     1  UNL1        0.0741
     10 C          11.5095   38.7090   10.1059 C.3     1  UNL1        0.0418
     11 N          13.5888   37.4559    9.8019 N.3     1  UNL1       -0.2725
     12 C          14.1074   36.1073    9.6383 C.3     1  UNL1        0.0747
     13 C          14.9647   36.0198    8.3858 C.3     1  UNL1        0.0490
     14 C          16.4319   35.9227    8.7577 C.3     1  UNL1        0.1386
     15 O          16.7637   34.5900    8.9947 O.3     1  UNL1       -0.3819
     16 H          16.2222   34.2465    9.7225 H       1  UNL1        0.2104
     17 C          10.2904   42.8232    9.4998 C.2     1  UNL1        0.2587
     18 O          11.0241   43.7243    9.9853 O.2     1  UNL1       -0.2717
     19 N          10.8597   41.6780    8.8528 N.am    1  UNL1       -0.2673
     20 H          10.2353   41.0032    8.5006 H       1  UNL1        0.1563
     21 C           8.8045   42.9591    9.6040 C.3     1  UNL1        0.2135
     22 C           8.1023   42.1954    8.5229 C.ar    1  UNL1        0.0134
     23 C           8.5661   42.2924    7.2062 C.ar    1  UNL1       -0.0015
     24 C           7.9263   41.5883    6.1817 C.ar    1  UNL1       -0.0002
     25 C           6.8193   40.7847    6.4703 C.ar    1  UNL1       -0.0000
     26 C           6.3511   40.6850    7.7837 C.ar    1  UNL1       -0.0002
     27 C           6.9900   41.3889    8.8085 C.ar    1  UNL1       -0.0015
     28 C           9.2137   41.5121   11.2305 C.3     1  UNL1        0.1751
     29 O           8.3607   42.5555   10.8668 O.3     1  UNL1       -0.3400
@<TRIPOS>BOND
     1    28    29    1
     2    21    29    1
     3    21    17    1
     4    21    22    1
     5    17    19   am
     6     2     3   ar
     7     6     5    1
     8     6     7    1
     9     7     8    1
    10     8    11    1
    11    12    11    1
    12    12    13    1
    13    13    14    1
    14    14    15    1
    15     9    11    1
    16     9    10    1
    17    10     6    1
    18    23    24   ar
    19    25    26   ar
    20    27    22   ar
    21    19     1    1
    22     5     4   ar
    23     5     1   ar
    24    17    18    2
    25     1     2   ar
    26     3     4   ar
    27    22    23   ar
    28    24    25   ar
    29    26    27   ar
    30    15    16    1
    31    19    20    1
@<TRIPOS>MOLECULE
MolPort-019-898-526 CSSS00159553217 MCULE-8781269075 PubChem-56756144
 29 31 0 0 0
SMALL
GASTEIGER

@<TRIPOS>ATOM
      1 C           9.8057   41.0980   10.4034 C.ar    1  UNL1        0.1326
      2 C           9.8543   41.0342   11.7831 C.ar    1  UNL1        0.0565
      3 C           8.6639   41.6376   12.1744 C.ar    1  UNL1        0.1230
      4 N           7.9697   42.0262   11.0839 N.ar    1  UNL1       -0.1666
      5 N           8.6691   41.6912   10.0145 N.ar    1  UNL1       -0.2394
      6 C           8.2690   41.9554    8.6349 C.3     1  UNL1        0.1093
      7 C           7.4142   43.2269    8.5405 C.3     1  UNL1        0.0418
      8 C           5.9331   43.0080    8.9028 C.3     1  UNL1        0.0741
      9 C           6.0794   40.8448    7.9356 C.3     1  UNL1        0.0741
     10 C           7.6027   40.7229    8.0038 C.3     1  UNL1        0.0418
     11 N           5.5886   41.5946    9.0854 N.3     1  UNL1       -0.2725
     12 C           4.1378   41.4987    9.0665 C.3     1  UNL1        0.0747
     13 C           3.5972   41.3959   10.4837 C.3     1  UNL1        0.0490
     14 C           4.5695   40.6343   11.3642 C.3     1  UNL1        0.1386
     15 O           3.9585   39.4732   11.8345 O.3     1  UNL1       -0.3819
     16 H           3.1712   39.7082   12.3500 H       1  UNL1        0.2104
     17 C          11.8458   41.3991    8.9047 C.2     1  UNL1        0.2587
     18 O          11.9566   42.6269    9.1622 O.2     1  UNL1       -0.2717
     19 N          10.7989   40.6146    9.4902 N.am    1  UNL1       -0.2673
     20 H          10.7587   39.6622    9.2441 H       1  UNL1        0.1563
     21 C          12.8260   40.7590    7.9737 C.3     1  UNL1        0.2135
     22 C          13.7469   41.7694    7.3604 C.ar    1  UNL1        0.0134
     23 C          15.0459   41.9038    7.8629 C.ar    1  UNL1       -0.0015
     24 C          15.9220   42.8401    7.3057 C.ar    1  UNL1       -0.0002
     25 C          15.5018   43.6463    6.2437 C.ar    1  UNL1       -0.0000
     26 C          14.2048   43.5171    5.7385 C.ar    1  UNL1       -0.0002
     27 C          13.3282   42.5814    6.2952 C.ar    1  UNL1       -0.0015
     28 C          13.6268   40.1881    9.9585 C.3     1  UNL1        0.1751
     29 O          13.5504   39.7607    8.6319 O.3     1  UNL1       -0.3400
@<TRIPOS>BOND
     1    28    29    1
     2    21    29    1
     3    21    17    1
     4    21    22    1
     5    17    19   am
     6     2     3   ar
     7     6     5    1
     8     6     7    1
     9     7     8    1
    10     8    11    1
    11    12    11    1
    12    12    13    1
    13    13    14    1
    14    14    15    1
    15     9    11    1
    16     9    10    1
    17    10     6    1
    18    23    24   ar
    19    25    26   ar
    20    27    22   ar
    21    19     1    1
    22     5     4   ar
    23     5     1   ar
    24    17    18    2
    25     1     2   ar
    26     3     4   ar
    27    22    23   ar
    28    24    25   ar
    29    26    27   ar
    30    15    16    1
    31    19    20    1
@<TRIPOS>MOLECULE
MolPort-019-898-526 CSSS00159553217 MCULE-8781269075 PubChem-56756144
 29 31 0 0 0
SMALL
GASTEIGER

@<TRIPOS>ATOM
      1 C          12.5330   41.2119    6.8541 C.ar    1  UNL1        0.1326
      2 C          13.1690   42.2436    6.1897 C.ar    1  UNL1        0.0565
      3 C          14.3733   42.3714    6.8735 C.ar    1  UNL1        0.1230
      4 N          14.4283   41.4662    7.8733 N.ar    1  UNL1       -0.1666
      5 N          13.3088   40.7653    7.8509 N.ar    1  UNL1       -0.2394
      6 C          12.9710   39.6955    8.7860 C.3     1  UNL1        0.1093
      7 C          11.6055   39.0790    8.4516 C.3     1  UNL1        0.0418
      8 C          10.4101   39.8906    8.9856 C.3     1  UNL1        0.0741
      9 C          11.7253   40.4688   10.8757 C.3     1  UNL1        0.0741
     10 C          13.0858   40.1731   10.2420 C.3     1  UNL1        0.0418
     11 N          10.8104   40.9910    9.8681 N.3     1  UNL1       -0.2725
     12 C           9.6172   41.4372   10.5690 C.3     1  UNL1        0.0747
     13 C           9.7747   41.2263   12.0664 C.3     1  UNL1        0.0490
     14 C           8.4153   41.1832   12.7379 C.3     1  UNL1        0.1386
     15 O           7.7357   42.3739   12.4874 O.3     1  UNL1       -0.3819
     16 H           8.2473   43.1186   12.8402 H       1  UNL1        0.2104
     17 C          10.7482   40.3638    5.2435 C.2     1  UNL1        0.2587
     18 O          11.4548   40.5700    4.2216 O.2     1  UNL1       -0.2717
     19 N          11.2400   40.6713    6.5541 N.am    1  UNL1       -0.2673
     20 H          10.6382   40.4961    7.3133 H       1  UNL1        0.1563
     21 C           9.3774   39.7889    5.0770 C.3     1  UNL1        0.2135
     22 C           8.3756   40.4883    5.9444 C.ar    1  UNL1        0.0134
     23 C           7.3175   39.7556    6.4935 C.ar    1  UNL1       -0.0015
     24 C           6.3714   40.3877    7.3059 C.ar    1  UNL1       -0.0002
     25 C           6.4797   41.7560    7.5716 C.ar    1  UNL1       -0.0000
     26 C           7.5341   42.4932    7.0247 C.ar    1  UNL1       -0.0002
     27 C           8.4802   41.8618    6.2122 C.ar    1  UNL1       -0.0015
     28 C           9.3164   38.5696    3.2286 C.3     1  UNL1        0.1751
     29 O           8.9869   39.8279    3.7351 O.3     1  UNL1       -0.3400
@<TRIPOS>BOND
     1    28    29    1
     2    21    29    1
     3    21    17    1
     4    21    22    1
     5    17    19   am
     6     2     3   ar
     7     6     5    1
     8     6     7    1
     9     7     8    1
    10     8    11    1
    11    12    11    1
    12    12    13    1
    13    13    14    1
    14    14    15    1
    15     9    11    1
    16     9    10    1
    17    10     6    1
    18    23    24   ar
    19    25    26   ar
    20    27    22   ar
    21    19     1    1
    22     5     4   ar
    23     5     1   ar
    24    17    18    2
    25     1     2   ar
    26     3     4   ar
    27    22    23   ar
    28    24    25   ar
    29    26    27   ar
    30    15    16    1
    31    19    20    1
@<TRIPOS>MOLECULE
MolPort-019-898-526 CSSS00159553217 MCULE-8781269075 PubChem-56756144
 29 31 0 0 0
SMALL
GASTEIGER

@<TRIPOS>ATOM
      1 C          10.7854   41.9203    9.8253 C.ar    1  UNL1        0.1326
      2 C          11.1302   41.5952   11.1236 C.ar    1  UNL1        0.0565
      3 C           9.9592   41.0511   11.6401 C.ar    1  UNL1        0.1230
      4 N           8.9958   41.0617   10.6945 N.ar    1  UNL1       -0.1666
      5 N           9.5079   41.5876    9.5963 N.ar    1  UNL1       -0.2394
      6 C           8.7797   41.7931    8.3472 C.3     1  UNL1        0.1093
      7 C           8.2137   43.2177    8.2646 C.3     1  UNL1        0.0418
      8 C           6.8946   43.4076    9.0370 C.3     1  UNL1        0.0741
      9 C           6.3029   41.1841    8.4521 C.3     1  UNL1        0.0741
     10 C           7.7195   40.7012    8.1358 C.3     1  UNL1        0.0418
     11 N           6.3388   42.1491    9.5440 N.3     1  UNL1       -0.2725
     12 C           4.9600   42.4096    9.9255 C.3     1  UNL1        0.0747
     13 C           4.1881   41.1047   10.0385 C.3     1  UNL1        0.0490
     14 C           2.7998   41.2614    9.4480 C.3     1  UNL1        0.1386
     15 O           2.6928   42.5100    8.8381 O.3     1  UNL1       -0.3819
     16 H           2.8445   43.2056    9.4968 H       1  UNL1        0.2104
     17 C          12.6896   41.8600    8.1315 C.2     1  UNL1        0.2587
     18 O          12.9542   40.6479    8.3482 O.2     1  UNL1       -0.2717
     19 N          11.6352   42.5226    8.8409 N.am    1  UNL1       -0.2673
     20 H          11.4815   43.4729    8.6343 H       1  UNL1        0.1563
     21 C          13.4924   42.6104    7.1168 C.3     1  UNL1        0.2135
     22 C          14.9334   42.7095    7.5154 C.ar    1  UNL1        0.0134
     23 C          15.6792   43.8224    7.1111 C.ar    1  UNL1       -0.0015
     24 C          17.0252   43.9355    7.4719 C.ar    1  UNL1       -0.0002
     25 C          17.6308   42.9352    8.2381 C.ar    1  UNL1       -0.0000
     26 C          16.8908   41.8208    8.6437 C.ar    1  UNL1       -0.0002
     27 C          15.5451   41.7068    8.2832 C.ar    1  UNL1       -0.0015
     28 C          11.9932   41.8216    5.6896 C.3     1  UNL1        0.1751
     29 O          13.3647   42.0219    5.8550 O.3     1  UNL1       -0.3400
@<TRIPOS>BOND
     1    28    29    1
     2    21    29    1
     3    21    17    1
     4    21    22    1
     5    17    19   am
     6     2     3   ar
     7     6     5    1
     8     6     7    1
     9     7     8    1
    10     8    11    1
    11    12    11    1
    12    12    13    1
    13    13    14    1
    14    14    15    1
    15     9    11    1
    16     9    10    1
    17    10     6    1
    18    23    24   ar
    19    25    26   ar
    20    27    22   ar
    21    19     1    1
    22     5     4   ar
    23     5     1   ar
    24    17    18    2
    25     1     2   ar
    26     3     4   ar
    27    22    23   ar
    28    24    25   ar
    29    26    27   ar
    30    15    16    1
    31    19    20    1
@<TRIPOS>MOLECULE
MolPort-019-898-526 CSSS00159553217 MCULE-8781269075 PubChem-56756144
 29 31 0 0 0
SMALL
GASTEIGER

@<TRIPOS>ATOM
      1 C          12.5947   41.4717    7.1325 C.ar    1  UNL1        0.1326
      2 C          13.4139   42.4118    6.5364 C.ar    1  UNL1        0.0565
      3 C          14.6138   42.2754    7.2263 C.ar    1  UNL1        0.1230
      4 N          14.4932   41.3126    8.1648 N.ar    1  UNL1       -0.1666
      5 N          13.2659   40.8289    8.0975 N.ar    1  UNL1       -0.2394
      6 C          12.7300   39.7799    8.9609 C.3     1  UNL1        0.1093
      7 C          13.0317   40.0709   10.4376 C.3     1  UNL1        0.0418
      8 C          14.4538   39.6688   10.8720 C.3     1  UNL1        0.0741
      9 C          14.3256   37.8306    9.3750 C.3     1  UNL1        0.0741
     10 C          13.1995   38.3900    8.5037 C.3     1  UNL1        0.0418
     11 N          15.1782   38.9164    9.8430 N.3     1  UNL1       -0.2725
     12 C          16.3294   38.3044   10.4869 C.3     1  UNL1        0.0747
     13 C          17.4179   39.3403   10.7174 C.3     1  UNL1        0.0490
     14 C          18.7237   38.8786   10.0990 C.3     1  UNL1        0.1386
     15 O          19.0994   39.7653    9.0914 O.3     1  UNL1       -0.3819
     16 H          18.4099   39.7910    8.4097 H       1  UNL1        0.2104
     17 C          10.7794   40.1553    5.9199 C.2     1  UNL1        0.2587
     18 O          11.6003   39.3891    5.3497 O.2     1  UNL1       -0.2717
     19 N          11.2288   41.1945    6.7987 N.am    1  UNL1       -0.2673
     20 H          10.5402   41.7667    7.2082 H       1  UNL1        0.1563
     21 C           9.3162   39.9701    5.6706 C.3     1  UNL1        0.2135
     22 C           8.4888   40.8549    6.5524 C.ar    1  UNL1        0.0134
     23 C           8.0728   40.3788    7.8007 C.ar    1  UNL1       -0.0015
     24 C           7.3003   41.1875    8.6398 C.ar    1  UNL1       -0.0002
     25 C           6.9404   42.4757    8.2331 C.ar    1  UNL1       -0.0000
     26 C           7.3524   42.9560    6.9866 C.ar    1  UNL1       -0.0002
     27 C           8.1244   42.1480    6.1470 C.ar    1  UNL1       -0.0015
     28 C           9.1853   38.9463    3.7105 C.3     1  UNL1        0.1751
     29 O           9.0149   40.1890    4.3230 O.3     1  UNL1       -0.3400
@<TRIPOS>BOND
     1    28    29    1
     2    21    29    1
     3    21    17    1
     4    21    22    1
     5    17    19   am
     6     2     3   ar
     7     6     5    1
     8     6     7    1
     9     7     8    1
    10     8    11    1
    11    12    11    1
    12    12    13    1
    13    13    14    1
    14    14    15    1
    15     9    11    1
    16     9    10    1
    17    10     6    1
    18    23    24   ar
    19    25    26   ar
    20    27    22   ar
    21    19     1    1
    22     5     4   ar
    23     5     1   ar
    24    17    18    2
    25     1     2   ar
    26     3     4   ar
    27    22    23   ar
    28    24    25   ar
    29    26    27   ar
    30    15    16    1
    31    19    20    1
@<TRIPOS>MOLECULE
MolPort-019-898-526 CSSS00159553217 MCULE-8781269075 PubChem-56756144
 29 31 0 0 0
SMALL
GASTEIGER

@<TRIPOS>ATOM
      1 C           9.7548   42.6766    9.4277 C.ar    1  UNL1        0.1326
      2 C          10.1522   43.5311   10.4387 C.ar    1  UNL1        0.0565
      3 C           9.1761   44.5216   10.4240 C.ar    1  UNL1        0.1230
      4 N           8.2689   44.2535    9.4609 N.ar    1  UNL1       -0.1666
      5 N           8.6269   43.1304    8.8647 N.ar    1  UNL1       -0.2394
      6 C           7.9137   42.5078    7.7526 C.3     1  UNL1        0.1093
      7 C           6.8566   43.4575    7.1722 C.3     1  UNL1        0.0418
      8 C           5.5397   43.4837    7.9708 C.3     1  UNL1        0.0741
      9 C           5.8455   41.1753    8.4336 C.3     1  UNL1        0.0741
     10 C           7.3488   41.1361    8.1531 C.3     1  UNL1        0.0418
     11 N           5.4823   42.4600    9.0189 N.3     1  UNL1       -0.2725
     12 C           4.0957   42.3557    9.4441 C.3     1  UNL1        0.0747
     13 C           3.7938   40.9430    9.9178 C.3     1  UNL1        0.0490
     14 C           3.8681   40.8679   11.4309 C.3     1  UNL1        0.1386
     15 O           4.0000   39.5372   11.8239 O.3     1  UNL1       -0.3819
     16 H           3.2339   39.0305   11.5121 H       1  UNL1        0.2104
     17 C          11.6642   41.4144    8.3054 C.2     1  UNL1        0.2587
     18 O          12.2771   42.4652    7.9793 O.2     1  UNL1       -0.2717
     19 N          10.4193   41.4765    9.0128 N.am    1  UNL1       -0.2673
     20 H           9.9833   40.6215    9.2326 H       1  UNL1        0.1563
     21 C          12.2523   40.0870    7.9454 C.3     1  UNL1        0.2135
     22 C          12.7761   39.3690    9.1517 C.ar    1  UNL1        0.0134
     23 C          12.4669   38.0159    9.3293 C.ar    1  UNL1       -0.0015
     24 C          12.9452   37.3262   10.4474 C.ar    1  UNL1       -0.0002
     25 C          13.7343   37.9878   11.3930 C.ar    1  UNL1       -0.0000
     26 C          14.0453   39.3398   11.2212 C.ar    1  UNL1       -0.0002
     27 C          13.5672   40.0301   10.1037 C.ar    1  UNL1       -0.0015
     28 C          11.2413   39.8564    5.9879 C.3     1  UNL1        0.1751
     29 O          11.3157   39.3016    7.2666 O.3     1  UNL1       -0.3400
@<TRIPOS>BOND
     1    28    29    1
     2    21    29    1
     3    21    17    1
     4    21    22    1
     5    17    19   am
     6     2     3   ar
     7     6     5    1
     8     6     7    1
     9     7     8    1
    10     8    11    1
    11    12    11    1
    12    12    13    1
    13    13    14    1
    14    14    15    1
    15     9    11    1
    16     9    10    1
    17    10     6    1
    18    23    24   ar
    19    25    26   ar
    20    27    22   ar
    21    19     1    1
    22     5     4   ar
    23     5     1   ar
    24    17    18    2
    25     1     2   ar
    26     3     4   ar
    27    22    23   ar
    28    24    25   ar
    29    26    27   ar
    30    15    16    1
    31    19    20    1
@<TRIPOS>MOLECULE
MolPort-019-898-526 CSSS00159553217 MCULE-8781269075 PubChem-56756144
 29 31 0 0 0
SMALL
GASTEIGER

@<TRIPOS>ATOM
      1 C          10.0944   41.0269    9.5464 C.ar    1  UNL1        0.1326
      2 C          10.3989   40.4581   10.7686 C.ar    1  UNL1        0.0565
      3 C          11.7884   40.4001   10.7583 C.ar    1  UNL1        0.1230
      4 N          12.2573   40.9062    9.5981 N.ar    1  UNL1       -0.1666
      5 N          11.2221   41.2870    8.8713 N.ar    1  UNL1       -0.2394
      6 C          11.3055   41.8715    7.5355 C.3     1  UNL1        0.1093
      7 C           9.9083   42.0849    6.9367 C.3     1  UNL1        0.0418
      8 C           9.2976   40.8140    6.3163 C.3     1  UNL1        0.0741
      9 C          11.4804   40.1677    5.6426 C.3     1  UNL1        0.0741
     10 C          12.2406   41.0556    6.6293 C.3     1  UNL1        0.0418
     11 N          10.2428   39.6950    6.2506 N.3     1  UNL1       -0.2725
     12 C           9.6772   38.7057    5.3474 C.3     1  UNL1        0.0747
     13 C          10.3316   38.8053    3.9788 C.3     1  UNL1        0.0490
     14 C           9.7388   37.7760    3.0355 C.3     1  UNL1        0.1386
     15 O           9.9414   36.4988    3.5552 O.3     1  UNL1       -0.3819
     16 H          10.8928   36.3371    3.6540 H       1  UNL1        0.2104
     17 C           7.7679   42.0535    9.7265 C.2     1  UNL1        0.2587
     18 O           7.9702   42.5139   10.8811 O.2     1  UNL1       -0.2717
     19 N           8.7846   41.3127    9.0396 N.am    1  UNL1       -0.2673
     20 H           8.5644   40.9709    8.1430 H       1  UNL1        0.1563
     21 C           6.4446   42.2889    9.0702 C.3     1  UNL1        0.2135
     22 C           5.3064   41.9528    9.9850 C.ar    1  UNL1        0.0134
     23 C           5.3766   40.7936   10.7657 C.ar    1  UNL1       -0.0015
     24 C           4.3262   40.4608   11.6262 C.ar    1  UNL1       -0.0002
     25 C           3.2008   41.2861   11.7087 C.ar    1  UNL1       -0.0000
     26 C           3.1249   42.4448   10.9303 C.ar    1  UNL1       -0.0002
     27 C           4.1746   42.7781   10.0695 C.ar    1  UNL1       -0.0015
     28 C           7.5914   44.1762    8.8970 C.3     1  UNL1        0.1751
     29 O           6.3469   43.6085    8.6187 O.3     1  UNL1       -0.3400
@<TRIPOS>BOND
     1    28    29    1
     2    21    29    1
     3    21    17    1
     4    21    22    1
     5    17    19   am
     6     2     3   ar
     7     6     5    1
     8     6     7    1
     9     7     8    1
    10     8    11    1
    11    12    11    1
    12    12    13    1
    13    13    14    1
    14    14    15    1
    15     9    11    1
    16     9    10    1
    17    10     6    1
    18    23    24   ar
    19    25    26   ar
    20    27    22   ar
    21    19     1    1
    22     5     4   ar
    23     5     1   ar
    24    17    18    2
    25     1     2   ar
    26     3     4   ar
    27    22    23   ar
    28    24    25   ar
    29    26    27   ar
    30    15    16    1
    31    19    20    1
