@<TRIPOS>MOLECULE
MolPort-019-951-899 72401769 CSSS00160620296 MCULE-3708651023 PubChem-60176406 ZINC000072401769
 28 30 0 0 0
SMALL
GASTEIGER

@<TRIPOS>ATOM
      1 C          12.0241   40.2199   10.4050 C.ar    1  UNL1        0.0599
      2 C          11.4215   40.7735    9.2407 C.ar    1  UNL1        0.0149
      3 C          10.2072   41.4773    9.3307 C.ar    1  UNL1        0.0071
      4 C           9.6496   41.5937   10.5960 C.ar    1  UNL1        0.0687
      5 C           8.5130   42.1850   11.0814 C.ar    1  UNL1        0.1569
      6 C          10.2430   41.0569   11.6945 C.ar    1  UNL1        0.1584
      7 N           8.4517   41.9961   12.4222 N.ar    1  UNL1       -0.1561
      8 N           9.5205   41.2984   12.8025 N.ar    1  UNL1       -0.2584
      9 N          11.4126   40.3762   11.6244 N.ar    1  UNL1       -0.2314
     10 H           9.7396   41.0140   13.7192 H       1  UNL1        0.1906
     11 C          13.8588   39.1312   11.6732 C.3     1  UNL1        0.0059
     12 C          13.3302   39.4659   10.2900 C.3     1  UNL1        0.0355
     13 C          13.1670   38.1644    9.5203 C.3     1  UNL1        0.0059
     14 C          14.3570   40.3163    9.5639 C.3     1  UNL1        0.0059
     15 C           6.4880   42.2808    9.5543 C.2     1  UNL1        0.2701
     16 N           7.5444   42.8942   10.3022 N.am    1  UNL1       -0.2631
     17 O           6.3916   41.0250    9.5021 O.2     1  UNL1       -0.2681
     18 H           7.6090   43.8763   10.2786 H       1  UNL1        0.1567
     19 C           5.5664   43.1360    8.7797 C.ar    1  UNL1        0.1587
     20 CA          5.8517   43.6343    7.4804 C.ar    1  UNL1        0.1786
     21 C           3.8347   44.8945    7.5375 C.ar    1  UNL1        0.1197
     22 C           3.5362   44.3762    8.7929 C.ar    1  UNL1        0.1196
     23 N           4.9777   44.5115    6.9145 N.ar    1  UNL1       -0.2341
     24 N           4.4052   43.5160    9.3810 N.ar    1  UNL1       -0.2359
     25 C           7.0073   43.2057    6.6669 C.2     1  UNL1        0.3576
     26 O           8.2876   43.2835    7.2009 O.3     1  UNL1       -0.4760
     27 OXT         6.8638   42.8446    5.4693 O.2     1  UNL1       -0.2433
     28 H           8.4087   43.5508    8.0908 H       1  UNL1        0.2955
@<TRIPOS>BOND
     1    11    12    1
     2    12    13    1
     3    12    14    1
     4    12     1    1
     5     1     9   ar
     6     2     3   ar
     7     4     5   ar
     8     5    16    1
     9    15    19    1
    10    19    24   ar
    11    20    23   ar
    12    20    25    1
    13    21    22   ar
    14    25    26    1
    15     6     4   ar
    16    16    15   am
    17     8     7   ar
    18     8     6   ar
    19     1     2   ar
    20     3     4   ar
    21     5     7   ar
    22    15    17    2
    23    19    20   ar
    24    21    23   ar
    25    22    24   ar
    26    25    27    2
    27     6     9   ar
    28    16    18    1
    29     8    10    1
    30    26    28    1
@<TRIPOS>MOLECULE
MolPort-019-951-899 72401769 CSSS00160620296 MCULE-3708651023 PubChem-60176406 ZINC000072401769
 28 30 0 0 0
SMALL
GASTEIGER

@<TRIPOS>ATOM
      1 C          12.2140   40.4936   10.0395 C.ar    1  UNL1        0.0599
      2 C          11.5225   41.1599    8.9892 C.ar    1  UNL1        0.0149
      3 C          10.2858   41.7841    9.2316 C.ar    1  UNL1        0.0071
      4 C           9.7965   41.7096   10.5280 C.ar    1  UNL1        0.0687
      5 C           8.6647   42.1758   11.1432 C.ar    1  UNL1        0.1569
      6 C          10.4743   41.0679   11.5157 C.ar    1  UNL1        0.1584
      7 N           8.6880   41.8145   12.4494 N.ar    1  UNL1       -0.1561
      8 N           9.8062   41.1291   12.6810 N.ar    1  UNL1       -0.2584
      9 N          11.6667   40.4618   11.2983 N.ar    1  UNL1       -0.2314
     10 H          10.0893   40.7415   13.5406 H       1  UNL1        0.1906
     11 C          13.3340   38.5922    8.9038 C.3     1  UNL1        0.0059
     12 C          13.5431   39.8275    9.7611 C.3     1  UNL1        0.0355
     13 C          14.4986   40.7549    9.0261 C.3     1  UNL1        0.0059
     14 C          14.1992   39.4146   11.0664 C.3     1  UNL1        0.0059
     15 C           6.5750   42.3664    9.7153 C.2     1  UNL1        0.2701
     16 N           7.6232   42.9286   10.5132 N.am    1  UNL1       -0.2631
     17 O           6.5522   41.1290    9.4754 O.2     1  UNL1       -0.2681
     18 H           7.6276   43.9053   10.6375 H       1  UNL1        0.1567
     19 C           5.5719   43.2656    9.1105 C.ar    1  UNL1        0.1587
     20 CA          4.1996   43.2819    9.4769 C.ar    1  UNL1        0.1786
     21 C           3.7721   44.8577    7.7467 C.ar    1  UNL1        0.1197
     22 C           5.1222   44.8714    7.4136 C.ar    1  UNL1        0.1196
     23 N           3.3464   44.0693    8.7657 N.ar    1  UNL1       -0.2341
     24 N           5.9841   44.0781    8.0984 N.ar    1  UNL1       -0.2359
     25 C           3.6447   42.5492   10.6327 C.2     1  UNL1        0.3576
     26 O           4.4747   42.2178   11.6965 O.3     1  UNL1       -0.4760
     27 OXT         2.4509   42.1488   10.6392 O.2     1  UNL1       -0.2433
     28 H           5.3652   42.5092   11.7044 H       1  UNL1        0.2955
@<TRIPOS>BOND
     1    11    12    1
     2    12    13    1
     3    12    14    1
     4    12     1    1
     5     1     9   ar
     6     2     3   ar
     7     4     5   ar
     8     5    16    1
     9    15    19    1
    10    19    24   ar
    11    20    23   ar
    12    20    25    1
    13    21    22   ar
    14    25    26    1
    15     6     4   ar
    16    16    15   am
    17     8     7   ar
    18     8     6   ar
    19     1     2   ar
    20     3     4   ar
    21     5     7   ar
    22    15    17    2
    23    19    20   ar
    24    21    23   ar
    25    22    24   ar
    26    25    27    2
    27     6     9   ar
    28    16    18    1
    29     8    10    1
    30    26    28    1
@<TRIPOS>MOLECULE
MolPort-019-951-899 72401769 CSSS00160620296 MCULE-3708651023 PubChem-60176406 ZINC000072401769
 28 30 0 0 0
SMALL
GASTEIGER

@<TRIPOS>ATOM
      1 C           8.0679   41.6863    8.8267 C.ar    1  UNL1        0.0599
      2 C           9.0523   42.6077    9.2819 C.ar    1  UNL1        0.0149
      3 C          10.4136   42.3966    8.9986 C.ar    1  UNL1        0.0071
      4 C          10.7261   41.2606    8.2655 C.ar    1  UNL1        0.0687
      5 C          11.8979   40.7227    7.8025 C.ar    1  UNL1        0.1569
      6 C           9.7691   40.3942    7.8407 C.ar    1  UNL1        0.1584
      7 N          11.6259   39.5785    7.1287 N.ar    1  UNL1       -0.1561
      8 N          10.3101   39.3740    7.1520 N.ar    1  UNL1       -0.2584
      9 N           8.4536   40.5836    8.1054 N.ar    1  UNL1       -0.2314
     10 H           9.8262   38.6203    6.7432 H       1  UNL1        0.1906
     11 C           6.3381   41.6382   10.6057 C.3     1  UNL1        0.0059
     12 C           6.6083   41.9289    9.1404 C.3     1  UNL1        0.0355
     13 C           6.2006   43.3674    8.8624 C.3     1  UNL1        0.0059
     14 C           5.7379   41.0207    8.2905 C.3     1  UNL1        0.0059
     15 C          13.9184   42.0408    7.0139 C.2     1  UNL1        0.2701
     16 N          13.2028   41.2785    7.9929 N.am    1  UNL1       -0.2631
     17 O          13.4302   42.2193    5.8654 O.2     1  UNL1       -0.2681
     18 H          13.6412   41.1256    8.8611 H       1  UNL1        0.1567
     19 C          15.2685   42.5421    7.3404 C.ar    1  UNL1        0.1587
     20 CA         15.8251   43.7305    6.7967 C.ar    1  UNL1        0.1786
     21 C          17.8848   43.2450    7.8836 C.ar    1  UNL1        0.1197
     22 C          17.3278   42.1023    8.4475 C.ar    1  UNL1        0.1196
     23 N          17.1236   44.0279    7.0781 N.ar    1  UNL1       -0.2341
     24 N          16.0412   41.7794    8.1624 N.ar    1  UNL1       -0.2359
     25 C          15.0613   44.7096    5.9973 C.2     1  UNL1        0.3576
     26 O          15.6458   45.9244    5.6609 O.3     1  UNL1       -0.4760
     27 OXT        13.8612   44.4985    5.6805 O.2     1  UNL1       -0.2433
     28 H          16.5381   46.0946    5.8907 H       1  UNL1        0.2955
@<TRIPOS>BOND
     1    11    12    1
     2    12    13    1
     3    12    14    1
     4    12     1    1
     5     1     9   ar
     6     2     3   ar
     7     4     5   ar
     8     5    16    1
     9    15    19    1
    10    19    24   ar
    11    20    23   ar
    12    20    25    1
    13    21    22   ar
    14    25    26    1
    15     6     4   ar
    16    16    15   am
    17     8     7   ar
    18     8     6   ar
    19     1     2   ar
    20     3     4   ar
    21     5     7   ar
    22    15    17    2
    23    19    20   ar
    24    21    23   ar
    25    22    24   ar
    26    25    27    2
    27     6     9   ar
    28    16    18    1
    29     8    10    1
    30    26    28    1
@<TRIPOS>MOLECULE
MolPort-019-951-899 72401769 CSSS00160620296 MCULE-3708651023 PubChem-60176406 ZINC000072401769
 28 30 0 0 0
SMALL
GASTEIGER

@<TRIPOS>ATOM
      1 C          15.7579   42.5681    7.6545 C.ar    1  UNL1        0.0599
      2 C          14.5164   42.9924    7.1031 C.ar    1  UNL1        0.0149
      3 C          13.3446   42.2467    7.3239 C.ar    1  UNL1        0.0071
      4 C          13.4746   41.1000    8.0943 C.ar    1  UNL1        0.0687
      5 C          12.5966   40.1385    8.5205 C.ar    1  UNL1        0.1569
      6 C          14.6707   40.7138    8.6112 C.ar    1  UNL1        0.1584
      7 N          13.2659   39.2232    9.2631 N.ar    1  UNL1       -0.1561
      8 N          14.5485   39.5775    9.3197 N.ar    1  UNL1       -0.2584
      9 N          15.8084   41.4212    8.4076 N.ar    1  UNL1       -0.2314
     10 H          15.2691   39.0991    9.7900 H       1  UNL1        0.1906
     11 C          17.4655   44.0354    8.6989 C.3     1  UNL1        0.0059
     12 C          17.0083   43.3822    7.4069 C.3     1  UNL1        0.0355
     13 C          18.1492   42.5232    6.8839 C.3     1  UNL1        0.0059
     14 C          16.7266   44.4655    6.3814 C.3     1  UNL1        0.0059
     15 C          10.6287   39.8150    6.9506 C.2     1  UNL1        0.2701
     16 N          11.1948   40.1040    8.2342 N.am    1  UNL1       -0.2631
     17 O          11.3767   39.6221    5.9544 O.2     1  UNL1       -0.2681
     18 H          10.5736   40.2928    8.9743 H       1  UNL1        0.1567
     19 C           9.1604   39.8290    6.7939 C.ar    1  UNL1        0.1587
     20 CA          8.4888   39.4783    5.5923 C.ar    1  UNL1        0.1786
     21 C           6.4188   40.1016    6.5854 C.ar    1  UNL1        0.1197
     22 C           7.0715   40.4077    7.7746 C.ar    1  UNL1        0.1196
     23 N           7.1390   39.6450    5.5299 N.ar    1  UNL1       -0.2341
     24 N           8.4190   40.2666    7.8489 N.ar    1  UNL1       -0.2359
     25 C           9.1539   38.8733    4.4208 C.2     1  UNL1        0.3576
     26 O           9.8079   37.6550    4.5576 O.3     1  UNL1       -0.4760
     27 OXT         9.2081   39.4773    3.3174 O.2     1  UNL1       -0.2433
     28 H           9.7757   37.1950    5.3732 H       1  UNL1        0.2955
@<TRIPOS>BOND
     1    11    12    1
     2    12    13    1
     3    12    14    1
     4    12     1    1
     5     1     9   ar
     6     2     3   ar
     7     4     5   ar
     8     5    16    1
     9    15    19    1
    10    19    24   ar
    11    20    23   ar
    12    20    25    1
    13    21    22   ar
    14    25    26    1
    15     6     4   ar
    16    16    15   am
    17     8     7   ar
    18     8     6   ar
    19     1     2   ar
    20     3     4   ar
    21     5     7   ar
    22    15    17    2
    23    19    20   ar
    24    21    23   ar
    25    22    24   ar
    26    25    27    2
    27     6     9   ar
    28    16    18    1
    29     8    10    1
    30    26    28    1
@<TRIPOS>MOLECULE
MolPort-019-951-899 72401769 CSSS00160620296 MCULE-3708651023 PubChem-60176406 ZINC000072401769
 28 30 0 0 0
SMALL
GASTEIGER

@<TRIPOS>ATOM
      1 C           5.2770   41.3342    9.6841 C.ar    1  UNL1        0.0599
      2 C           6.5099   41.5047   10.3741 C.ar    1  UNL1        0.0149
      3 C           7.7189   41.6043    9.6626 C.ar    1  UNL1        0.0071
      4 C           7.6334   41.5272    8.2798 C.ar    1  UNL1        0.0687
      5 C           8.5552   41.5805    7.2677 C.ar    1  UNL1        0.1569
      6 C           6.4446   41.3644    7.6416 C.ar    1  UNL1        0.1584
      7 N           7.9173   41.4529    6.0785 N.ar    1  UNL1       -0.1561
      8 N           6.6123   41.3188    6.3084 N.ar    1  UNL1       -0.2584
      9 N           5.2714   41.2669    8.3128 N.ar    1  UNL1       -0.2314
     10 H           5.9059   41.2075    5.6317 H       1  UNL1        0.1906
     11 C           2.8117   41.1058    9.5109 C.3     1  UNL1        0.0059
     12 C           3.9861   41.2289   10.4652 C.3     1  UNL1        0.0355
     13 C           3.9765   40.0163   11.3829 C.3     1  UNL1        0.0059
     14 C           3.7960   42.4682   11.3212 C.3     1  UNL1        0.0059
     15 C          10.9462   41.4899    6.4212 C.2     1  UNL1        0.2701
     16 N           9.9667   41.7487    7.4337 N.am    1  UNL1       -0.2631
     17 O          10.5969   41.0283    5.3014 O.2     1  UNL1       -0.2681
     18 H          10.2882   42.0658    8.3085 H       1  UNL1        0.1567
     19 C          12.3748   41.6921    6.7359 C.ar    1  UNL1        0.1587
     20 CA         13.0807   40.9535    7.7228 C.ar    1  UNL1        0.1786
     21 C          14.9917   42.3228    7.3588 C.ar    1  UNL1        0.1197
     22 C          14.3135   43.0203    6.3651 C.ar    1  UNL1        0.1196
     23 N          14.3631   41.3108    8.0083 N.ar    1  UNL1       -0.2341
     24 N          13.0283   42.6912    6.0807 N.ar    1  UNL1       -0.2359
     25 C          12.5349   39.7689    8.4153 C.2     1  UNL1        0.3576
     26 O          12.7647   38.5026    7.8915 O.3     1  UNL1       -0.4760
     27 OXT        11.7977   39.8880    9.4291 O.2     1  UNL1       -0.2433
     28 H          13.3113   38.3997    7.1374 H       1  UNL1        0.2955
@<TRIPOS>BOND
     1    11    12    1
     2    12    13    1
     3    12    14    1
     4    12     1    1
     5     1     9   ar
     6     2     3   ar
     7     4     5   ar
     8     5    16    1
     9    15    19    1
    10    19    24   ar
    11    20    23   ar
    12    20    25    1
    13    21    22   ar
    14    25    26    1
    15     6     4   ar
    16    16    15   am
    17     8     7   ar
    18     8     6   ar
    19     1     2   ar
    20     3     4   ar
    21     5     7   ar
    22    15    17    2
    23    19    20   ar
    24    21    23   ar
    25    22    24   ar
    26    25    27    2
    27     6     9   ar
    28    16    18    1
    29     8    10    1
    30    26    28    1
@<TRIPOS>MOLECULE
MolPort-019-951-899 72401769 CSSS00160620296 MCULE-3708651023 PubChem-60176406 ZINC000072401769
 28 30 0 0 0
SMALL
GASTEIGER

@<TRIPOS>ATOM
      1 C          12.5006   40.0366    9.9652 C.ar    1  UNL1        0.0599
      2 C          11.3289   39.8839    9.1719 C.ar    1  UNL1        0.0149
      3 C          10.0603   40.1646    9.7102 C.ar    1  UNL1        0.0071
      4 C          10.0264   40.5889   11.0309 C.ar    1  UNL1        0.0687
      5 C           9.0187   40.9486   11.8864 C.ar    1  UNL1        0.1569
      6 C          11.1585   40.7278   11.7699 C.ar    1  UNL1        0.1584
      7 N           9.5531   41.2866   13.0853 N.ar    1  UNL1       -0.1561
      8 N          10.8760   41.1501   13.0148 N.ar    1  UNL1       -0.2584
      9 N          12.3879   40.4615   11.2659 N.ar    1  UNL1       -0.2314
     10 H          11.5230   41.3249   13.7359 H       1  UNL1        0.1906
     11 C          14.8942   39.6223   10.4736 C.3     1  UNL1        0.0059
     12 C          13.8570   39.7303    9.3703 C.3     1  UNL1        0.0355
     13 C          13.8537   38.4208    8.5969 C.3     1  UNL1        0.0059
     14 C          14.2668   40.8385    8.4171 C.3     1  UNL1        0.0059
     15 C           6.9980   41.9176   10.6948 C.2     1  UNL1        0.2701
     16 N           7.6234   40.9705   11.5686 N.am    1  UNL1       -0.2631
     17 O           7.6713   42.8530   10.1841 O.2     1  UNL1       -0.2681
     18 H           7.0512   40.2838   11.9810 H       1  UNL1        0.1567
     19 C           5.5413   41.8323   10.4680 C.ar    1  UNL1        0.1587
     20 CA          4.9411   41.7915    9.1812 C.ar    1  UNL1        0.1786
     21 C           2.7921   41.8820   10.1974 C.ar    1  UNL1        0.1197
     22 C           3.3787   41.8823   11.4583 C.ar    1  UNL1        0.1196
     23 N           3.5830   41.8348    9.0959 N.ar    1  UNL1       -0.2341
     24 N           4.7313   41.8595   11.5623 N.ar    1  UNL1       -0.2359
     25 C           5.6966   41.6325    7.9223 C.2     1  UNL1        0.3576
     26 O           5.9487   42.7452    7.1292 O.3     1  UNL1       -0.4760
     27 OXT         6.0497   40.4955    7.5126 O.2     1  UNL1       -0.2433
     28 H           5.6912   43.5972    7.4220 H       1  UNL1        0.2955
@<TRIPOS>BOND
     1    11    12    1
     2    12    13    1
     3    12    14    1
     4    12     1    1
     5     1     9   ar
     6     2     3   ar
     7     4     5   ar
     8     5    16    1
     9    15    19    1
    10    19    24   ar
    11    20    23   ar
    12    20    25    1
    13    21    22   ar
    14    25    26    1
    15     6     4   ar
    16    16    15   am
    17     8     7   ar
    18     8     6   ar
    19     1     2   ar
    20     3     4   ar
    21     5     7   ar
    22    15    17    2
    23    19    20   ar
    24    21    23   ar
    25    22    24   ar
    26    25    27    2
    27     6     9   ar
    28    16    18    1
    29     8    10    1
    30    26    28    1
@<TRIPOS>MOLECULE
MolPort-019-951-899 72401769 CSSS00160620296 MCULE-3708651023 PubChem-60176406 ZINC000072401769
 28 30 0 0 0
SMALL
GASTEIGER

@<TRIPOS>ATOM
      1 C           8.2663   40.4972    7.1911 C.ar    1  UNL1        0.0599
      2 C           9.3097   41.4060    6.8584 C.ar    1  UNL1        0.0149
      3 C          10.6503   41.0890    7.1415 C.ar    1  UNL1        0.0071
      4 C          10.8832   39.8642    7.7507 C.ar    1  UNL1        0.0687
      5 C          12.0127   39.2137    8.1725 C.ar    1  UNL1        0.1569
      6 C           9.8708   39.0116    8.0594 C.ar    1  UNL1        0.1584
      7 N          11.6633   38.0189    8.7089 N.ar    1  UNL1       -0.1561
      8 N          10.3392   37.8929    8.6399 N.ar    1  UNL1       -0.2584
      9 N           8.5744   39.3023    7.7931 N.ar    1  UNL1       -0.2314
     10 H           9.8057   37.1273    8.9539 H       1  UNL1        0.1906
     11 C           6.1823   39.7416    6.0750 C.3     1  UNL1        0.0059
     12 C           6.8299   40.8543    6.8795 C.3     1  UNL1        0.0355
     13 C           6.0102   41.0602    8.1438 C.3     1  UNL1        0.0059
     14 C           6.7790   42.1386    6.0716 C.3     1  UNL1        0.0059
     15 C          13.8633   40.8446    8.7701 C.2     1  UNL1        0.2701
     16 N          13.3506   39.7098    8.0624 N.am    1  UNL1       -0.2631
     17 O          13.1076   41.5233    9.5168 O.2     1  UNL1       -0.2681
     18 H          13.9639   39.2359    7.4553 H       1  UNL1        0.1567
     19 C          15.2639   41.2565    8.5481 C.ar    1  UNL1        0.1587
     20 CA         16.3768   40.6651    9.2036 C.ar    1  UNL1        0.1786
     21 C          17.8088   42.2704    8.1879 C.ar    1  UNL1        0.1197
     22 C          16.7250   42.8247    7.5156 C.ar    1  UNL1        0.1196
     23 N          17.6097   41.2089    9.0093 N.ar    1  UNL1       -0.2341
     24 N          15.4857   42.3084    7.7124 N.ar    1  UNL1       -0.2359
     25 C          16.2945   39.4460   10.0330 C.2     1  UNL1        0.3576
     26 O          17.3247   38.5148    9.9866 O.3     1  UNL1       -0.4760
     27 OXT        15.2718   39.1944   10.7231 O.2     1  UNL1       -0.2433
     28 H          18.0913   38.6894    9.4770 H       1  UNL1        0.2955
@<TRIPOS>BOND
     1    11    12    1
     2    12    13    1
     3    12    14    1
     4    12     1    1
     5     1     9   ar
     6     2     3   ar
     7     4     5   ar
     8     5    16    1
     9    15    19    1
    10    19    24   ar
    11    20    23   ar
    12    20    25    1
    13    21    22   ar
    14    25    26    1
    15     6     4   ar
    16    16    15   am
    17     8     7   ar
    18     8     6   ar
    19     1     2   ar
    20     3     4   ar
    21     5     7   ar
    22    15    17    2
    23    19    20   ar
    24    21    23   ar
    25    22    24   ar
    26    25    27    2
    27     6     9   ar
    28    16    18    1
    29     8    10    1
    30    26    28    1
@<TRIPOS>MOLECULE
MolPort-019-951-899 72401769 CSSS00160620296 MCULE-3708651023 PubChem-60176406 ZINC000072401769
 28 30 0 0 0
SMALL
GASTEIGER

@<TRIPOS>ATOM
      1 C           5.4200   41.9438   10.2322 C.ar    1  UNL1        0.0599
      2 C           6.3093   42.2844    9.1746 C.ar    1  UNL1        0.0149
      3 C           7.6999   42.1557    9.3412 C.ar    1  UNL1        0.0071
      4 C           8.1368   41.6874   10.5721 C.ar    1  UNL1        0.0687
      5 C           9.3724   41.4327   11.1063 C.ar    1  UNL1        0.1569
      6 C           7.2691   41.3680   11.5682 C.ar    1  UNL1        0.1584
      7 N           9.2231   40.9782   12.3745 N.ar    1  UNL1       -0.1561
      8 N           7.9232   40.9381   12.6615 N.ar    1  UNL1       -0.2584
      9 N           5.9270   41.4863   11.4233 N.ar    1  UNL1       -0.2314
     10 H           7.5187   40.6492   13.5113 H       1  UNL1        0.1906
     11 C           3.3767   40.8626    9.3293 C.3     1  UNL1        0.0059
     12 C           3.9273   42.0884   10.0357 C.3     1  UNL1        0.0355
     13 C           3.1937   42.2386   11.3594 C.3     1  UNL1        0.0059
     14 C           3.6322   43.3157    9.1924 C.3     1  UNL1        0.0059
     15 C          11.3775   40.5625    9.8163 C.2     1  UNL1        0.2701
     16 N          10.6237   41.6115   10.4351 N.am    1  UNL1       -0.2631
     17 O          10.9805   39.3680    9.8851 O.2     1  UNL1       -0.2681
     18 H          10.9937   42.5229   10.3958 H       1  UNL1        0.1567
     19 C          12.6650   40.8882    9.1706 C.ar    1  UNL1        0.1587
     20 CA         12.7810   41.4180    7.8577 C.ar    1  UNL1        0.1786
     21 C          15.1489   41.2539    8.0172 C.ar    1  UNL1        0.1197
     22 C          15.0367   40.7722    9.3169 C.ar    1  UNL1        0.1196
     23 N          14.0248   41.5652    7.3239 N.ar    1  UNL1       -0.2341
     24 N          13.8045   40.6002    9.8582 N.ar    1  UNL1       -0.2359
     25 C          11.6359   41.8898    7.0534 C.2     1  UNL1        0.3576
     26 O          11.7456   41.9412    5.6693 O.3     1  UNL1       -0.4760
     27 OXT        10.5877   42.3216    7.6014 O.2     1  UNL1       -0.2433
     28 H          12.5201   41.6233    5.2486 H       1  UNL1        0.2955
@<TRIPOS>BOND
     1    11    12    1
     2    12    13    1
     3    12    14    1
     4    12     1    1
     5     1     9   ar
     6     2     3   ar
     7     4     5   ar
     8     5    16    1
     9    15    19    1
    10    19    24   ar
    11    20    23   ar
    12    20    25    1
    13    21    22   ar
    14    25    26    1
    15     6     4   ar
    16    16    15   am
    17     8     7   ar
    18     8     6   ar
    19     1     2   ar
    20     3     4   ar
    21     5     7   ar
    22    15    17    2
    23    19    20   ar
    24    21    23   ar
    25    22    24   ar
    26    25    27    2
    27     6     9   ar
    28    16    18    1
    29     8    10    1
    30    26    28    1
@<TRIPOS>MOLECULE
MolPort-019-951-899 72401769 CSSS00160620296 MCULE-3708651023 PubChem-60176406 ZINC000072401769
 28 30 0 0 0
SMALL
GASTEIGER

@<TRIPOS>ATOM
      1 C           6.3965   41.9992    9.1841 C.ar    1  UNL1        0.0599
      2 C           7.5118   42.1976   10.0456 C.ar    1  UNL1        0.0149
      3 C           8.8208   42.1966    9.5313 C.ar    1  UNL1        0.0071
      4 C           8.9505   41.9946    8.1646 C.ar    1  UNL1        0.0687
      5 C          10.0213   41.9279    7.3127 C.ar    1  UNL1        0.1569
      6 C           7.8709   41.8074    7.3606 C.ar    1  UNL1        0.1584
      7 N           9.5734   41.7092    6.0522 N.ar    1  UNL1       -0.1561
      8 N           8.2440   41.6340    6.0805 N.ar    1  UNL1       -0.2584
      9 N           6.6037   41.8057    7.8407 N.ar    1  UNL1       -0.2314
     10 H           7.6486   41.4809    5.3115 H       1  UNL1        0.1906
     11 C           4.3058   43.3148    9.4242 C.3     1  UNL1        0.0059
     12 C           4.9956   42.0033    9.7542 C.3     1  UNL1        0.0355
     13 C           4.1509   40.8716    9.1896 C.3     1  UNL1        0.0059
     14 C           5.0497   41.8424   11.2628 C.3     1  UNL1        0.0059
     15 C          12.5080   41.8778    6.8069 C.2     1  UNL1        0.2701
     16 N          11.3950   42.0705    7.6877 N.am    1  UNL1       -0.2631
     17 O          12.3207   41.5028    5.6180 O.2     1  UNL1       -0.2681
     18 H          11.5895   42.3195    8.6202 H       1  UNL1        0.1567
     19 C          13.8776   42.0432    7.3337 C.ar    1  UNL1        0.1587
     20 CA         14.7892   43.0308    6.8738 C.ar    1  UNL1        0.1786
     21 C          16.4773   42.0997    8.2676 C.ar    1  UNL1        0.1197
     22 C          15.5740   41.1574    8.7470 C.ar    1  UNL1        0.1196
     23 N          16.0647   43.0096    7.3494 N.ar    1  UNL1       -0.2341
     24 N          14.3039   41.1508    8.2698 N.ar    1  UNL1       -0.2359
     25 C          14.4226   44.1314    5.9599 C.2     1  UNL1        0.3576
     26 O          13.1697   44.1348    5.3593 O.3     1  UNL1       -0.4760
     27 OXT        15.2522   45.0271    5.6518 O.2     1  UNL1       -0.2433
     28 H          12.5429   43.4741    5.5794 H       1  UNL1        0.2955
@<TRIPOS>BOND
     1    11    12    1
     2    12    13    1
     3    12    14    1
     4    12     1    1
     5     1     9   ar
     6     2     3   ar
     7     4     5   ar
     8     5    16    1
     9    15    19    1
    10    19    24   ar
    11    20    23   ar
    12    20    25    1
    13    21    22   ar
    14    25    26    1
    15     6     4   ar
    16    16    15   am
    17     8     7   ar
    18     8     6   ar
    19     1     2   ar
    20     3     4   ar
    21     5     7   ar
    22    15    17    2
    23    19    20   ar
    24    21    23   ar
    25    22    24   ar
    26    25    27    2
    27     6     9   ar
    28    16    18    1
    29     8    10    1
    30    26    28    1
@<TRIPOS>MOLECULE
MolPort-019-951-899 72401769 CSSS00160620296 MCULE-3708651023 PubChem-60176406 ZINC000072401769
 28 30 0 0 0
SMALL
GASTEIGER

@<TRIPOS>ATOM
      1 C          10.2772   41.7960   10.1687 C.ar    1  UNL1        0.0599
      2 C          10.8372   40.7852   10.9993 C.ar    1  UNL1        0.0149
      3 C          12.1039   40.2456   10.7125 C.ar    1  UNL1        0.0071
      4 C          12.7549   40.7499    9.5957 C.ar    1  UNL1        0.0687
      5 C          13.9635   40.4915    9.0045 C.ar    1  UNL1        0.1569
      6 C          12.2010   41.7158    8.8165 C.ar    1  UNL1        0.1584
      7 N          14.1044   41.2858    7.9153 N.ar    1  UNL1       -0.1561
      8 N          13.0151   42.0431    7.7977 N.ar    1  UNL1       -0.2584
      9 N          10.9818   42.2458    9.0796 N.ar    1  UNL1       -0.2314
     10 H          12.8396   42.7139    7.0988 H       1  UNL1        0.1906
     11 C           8.5159   41.9854   11.9070 C.3     1  UNL1        0.0059
     12 C           8.9136   42.3652   10.4919 C.3     1  UNL1        0.0355
     13 C           8.8939   43.8824   10.3881 C.3     1  UNL1        0.0059
     14 C           7.8801   41.8141    9.5262 C.3     1  UNL1        0.0059
     15 C          16.3301   39.7991    9.6059 C.2     1  UNL1        0.2701
     16 N          14.9288   39.5393    9.4625 N.am    1  UNL1       -0.2631
     17 O          16.8081   40.9154    9.2673 O.2     1  UNL1       -0.2681
     18 H          14.6058   38.6392    9.6964 H       1  UNL1        0.1567
     19 C          17.2168   38.7157   10.0759 C.ar    1  UNL1        0.1587
     20 CA         16.8583   37.7791   11.0819 C.ar    1  UNL1        0.1786
     21 C          19.0560   36.8721   10.9991 C.ar    1  UNL1        0.1197
     22 C          19.3950   37.7632    9.9867 C.ar    1  UNL1        0.1196
     23 N          17.8025   36.9003   11.5176 N.ar    1  UNL1       -0.2341
     24 N          18.4731   38.6595    9.5535 N.ar    1  UNL1       -0.2359
     25 C          15.4977   37.6477   11.6408 C.2     1  UNL1        0.3576
     26 O          14.6785   36.6102   11.2132 O.3     1  UNL1       -0.4760
     27 OXT        15.0354   38.5039   12.4400 O.2     1  UNL1       -0.2433
     28 H          15.0098   35.9662   10.6186 H       1  UNL1        0.2955
@<TRIPOS>BOND
     1    11    12    1
     2    12    13    1
     3    12    14    1
     4    12     1    1
     5     1     9   ar
     6     2     3   ar
     7     4     5   ar
     8     5    16    1
     9    15    19    1
    10    19    24   ar
    11    20    23   ar
    12    20    25    1
    13    21    22   ar
    14    25    26    1
    15     6     4   ar
    16    16    15   am
    17     8     7   ar
    18     8     6   ar
    19     1     2   ar
    20     3     4   ar
    21     5     7   ar
    22    15    17    2
    23    19    20   ar
    24    21    23   ar
    25    22    24   ar
    26    25    27    2
    27     6     9   ar
    28    16    18    1
    29     8    10    1
    30    26    28    1
