@<TRIPOS>MOLECULE
MolPort-005-127-121 14980547 CHEMBL1502375 CSSS00159539851 PubChem-24817414 ZINC000014980547
 28 30 0 0 0
SMALL
GASTEIGER

@<TRIPOS>ATOM
      1 C          10.4774   40.5181    4.8893 C.ar    1  UNL1        0.1328
      2 C          10.4380   39.6172    3.8415 C.ar    1  UNL1        0.0565
      3 C           9.1300   39.1443    3.8731 C.ar    1  UNL1        0.1230
      4 N           8.4545   39.7376    4.8802 N.ar    1  UNL1       -0.1666
      5 N           9.2810   40.5685    5.4897 N.ar    1  UNL1       -0.2394
      6 C           8.9275   41.4000    6.6334 C.3     1  UNL1        0.1093
      7 C           8.5458   40.5264    7.8176 C.3     1  UNL1        0.0418
      8 C           8.1707   41.3983    9.0147 C.3     1  UNL1        0.0744
      9 C           7.3872   43.1786    7.4792 C.3     1  UNL1        0.0744
     10 C           7.7635   42.3117    6.2781 C.3     1  UNL1        0.0418
     11 N           7.1326   42.3909    8.6958 N.3     1  UNL1       -0.2691
     12 C           5.7587   41.8777    8.8106 C.3     1  UNL1        0.0946
     13 C           5.3826   41.3953   10.1832 C.2     1  UNL1       -0.0322
     14 C           6.3278   41.6340   11.3192 C.3     1  UNL1        0.0274
     15 C           4.2858   40.6427   10.3326 C.2     1  UNL1       -0.0329
     16 C           3.8682   40.0616   11.6454 C.3     1  UNL1        0.0301
     17 C          12.4257   41.0399    6.4514 C.2     1  UNL1        0.2505
     18 O          12.1837   40.0541    7.2001 O.2     1  UNL1       -0.2698
     19 N          11.6056   41.2992    5.3037 N.am    1  UNL1       -0.2660
     20 H          11.8376   42.0815    4.7529 H       1  UNL1        0.1566
     21 C          15.7214   43.6337    7.3422 C.ar    1  UNL1        0.1387
     22 C          14.7891   43.9860    6.3534 C.ar    1  UNL1        0.0370
     23 C          13.7154   43.1397    6.0641 C.ar    1  UNL1        0.0076
     24 C          13.5583   41.9316    6.7573 C.ar    1  UNL1        0.0539
     25 C          14.4909   41.5824    7.7445 C.ar    1  UNL1        0.0076
     26 C          15.5650   42.4287    8.0341 C.ar    1  UNL1        0.0370
     27 C          18.1557   44.0378    7.5121 C.3     1  UNL1        0.2525
     28 O          16.8057   44.4579    7.6552 O.3     1  UNL1       -0.4714
@<TRIPOS>BOND
     1    27    28    1
     2    21    28    1
     3    22    23   ar
     4    24    25   ar
     5    24    17    1
     6    26    21   ar
     7    17    19   am
     8     2     3   ar
     9     6     5    1
    10     6     7    1
    11     7     8    1
    12     8    11    1
    13    12    11    1
    14    12    13    1
    15    14    13    1
    16    16    15    1
    17     9    11    1
    18     9    10    1
    19    10     6    1
    20    19     1    1
    21     5     4   ar
    22     5     1   ar
    23    21    22   ar
    24    23    24   ar
    25    25    26   ar
    26    17    18    2
    27     1     2   ar
    28     3     4   ar
    29    13    15    2
    30    19    20    1
@<TRIPOS>MOLECULE
MolPort-005-127-121 14980547 CHEMBL1502375 CSSS00159539851 PubChem-24817414 ZINC000014980547
 28 30 0 0 0
SMALL
GASTEIGER

@<TRIPOS>ATOM
      1 C          10.3808   40.6053    5.0415 C.ar    1  UNL1        0.1328
      2 C          10.3226   39.5378    4.1652 C.ar    1  UNL1        0.0565
      3 C           8.9843   39.1599    4.2072 C.ar    1  UNL1        0.1230
      4 N           8.3100   39.9625    5.0581 N.ar    1  UNL1       -0.1666
      5 N           9.1665   40.8351    5.5582 N.ar    1  UNL1       -0.2394
      6 C           8.8241   41.8758    6.5195 C.3     1  UNL1        0.1093
      7 C           8.8475   41.3124    7.9314 C.3     1  UNL1        0.0418
      8 C           8.4839   42.4023    8.9383 C.3     1  UNL1        0.0744
      9 C           7.0791   43.5196    7.2296 C.3     1  UNL1        0.0744
     10 C           7.4421   42.4335    6.2175 C.3     1  UNL1        0.0418
     11 N           7.2104   43.0687    8.6243 N.3     1  UNL1       -0.2691
     12 C           6.0257   42.3743    9.1520 C.3     1  UNL1        0.0946
     13 C           4.7264   43.0966    8.9324 C.2     1  UNL1       -0.0322
     14 C           3.4487   42.4269    9.3320 C.3     1  UNL1        0.0274
     15 C           4.7286   44.2532    8.2586 C.2     1  UNL1       -0.0329
     16 C           3.4805   45.0095    7.9329 C.3     1  UNL1        0.0301
     17 C          12.4004   41.1502    6.5019 C.2     1  UNL1        0.2505
     18 O          12.1643   40.2074    7.3059 O.2     1  UNL1       -0.2698
     19 N          11.5426   41.3759    5.3749 N.am    1  UNL1       -0.2660
     20 H          11.7716   42.1250    4.7785 H       1  UNL1        0.1566
     21 C          15.7894   43.6975    7.1414 C.ar    1  UNL1        0.1387
     22 C          14.7691   44.0835    6.2576 C.ar    1  UNL1        0.0370
     23 C          13.6650   43.2523    6.0501 C.ar    1  UNL1        0.0076
     24 C          13.5650   42.0259    6.7214 C.ar    1  UNL1        0.0539
     25 C          14.5855   41.6431    7.6036 C.ar    1  UNL1        0.0076
     26 C          15.6899   42.4742    7.8114 C.ar    1  UNL1        0.0370
     27 C          18.1794   43.9765    7.7136 C.3     1  UNL1        0.2525
     28 O          16.9060   44.5058    7.3707 O.3     1  UNL1       -0.4714
@<TRIPOS>BOND
     1    27    28    1
     2    21    28    1
     3    22    23   ar
     4    24    25   ar
     5    24    17    1
     6    26    21   ar
     7    17    19   am
     8     2     3   ar
     9     6     5    1
    10     6     7    1
    11     7     8    1
    12     8    11    1
    13    12    11    1
    14    12    13    1
    15    14    13    1
    16    16    15    1
    17     9    11    1
    18     9    10    1
    19    10     6    1
    20    19     1    1
    21     5     4   ar
    22     5     1   ar
    23    21    22   ar
    24    23    24   ar
    25    25    26   ar
    26    17    18    2
    27     1     2   ar
    28     3     4   ar
    29    13    15    2
    30    19    20    1
@<TRIPOS>MOLECULE
MolPort-005-127-121 14980547 CHEMBL1502375 CSSS00159539851 PubChem-24817414 ZINC000014980547
 28 30 0 0 0
SMALL
GASTEIGER

@<TRIPOS>ATOM
      1 C          10.8757   39.3886    7.2861 C.ar    1  UNL1        0.1328
      2 C           9.8534   39.2839    6.3615 C.ar    1  UNL1        0.0565
      3 C           8.9968   38.3490    6.9338 C.ar    1  UNL1        0.1230
      4 N           9.4958   37.9382    8.1192 N.ar    1  UNL1       -0.1666
      5 N          10.6352   38.5750    8.3227 N.ar    1  UNL1       -0.2394
      6 C          11.4822   38.4048    9.4966 C.3     1  UNL1        0.1093
      7 C          12.6371   39.3927    9.4565 C.3     1  UNL1        0.0418
      8 C          13.5273   39.2108   10.6847 C.3     1  UNL1        0.0744
      9 C          12.9222   36.8093   10.7742 C.3     1  UNL1        0.0744
     10 C          12.0279   36.9865    9.5475 C.3     1  UNL1        0.0418
     11 N          13.9852   37.8235   10.8582 N.3     1  UNL1       -0.2691
     12 C          15.1999   37.4946   10.0963 C.3     1  UNL1        0.0946
     13 C          16.3478   38.4409   10.3081 C.2     1  UNL1       -0.0322
     14 C          16.2229   39.8515    9.8228 C.3     1  UNL1        0.0274
     15 C          17.5022   37.9682   10.7933 C.2     1  UNL1       -0.0329
     16 C          18.7192   38.8177   10.9751 C.3     1  UNL1        0.0301
     17 C          12.0739   41.5331    6.5977 C.2     1  UNL1        0.2505
     18 O          11.0314   42.0424    6.1029 O.2     1  UNL1       -0.2698
     19 N          12.0343   40.2271    7.1891 N.am    1  UNL1       -0.2660
     20 H          12.8757   39.8761    7.5606 H       1  UNL1        0.1566
     21 C          15.7619   43.7181    6.5123 C.ar    1  UNL1        0.1387
     22 C          14.7183   44.0541    5.6353 C.ar    1  UNL1        0.0370
     23 C          13.5168   43.3411    5.6642 C.ar    1  UNL1        0.0076
     24 C          13.3413   42.2842    6.5681 C.ar    1  UNL1        0.0539
     25 C          14.3853   41.9510    7.4429 C.ar    1  UNL1        0.0076
     26 C          15.5872   42.6639    7.4142 C.ar    1  UNL1        0.0370
     27 C          18.0629   44.0598    7.3528 C.3     1  UNL1        0.2525
     28 O          16.9753   44.4113    6.5084 O.3     1  UNL1       -0.4714
@<TRIPOS>BOND
     1    27    28    1
     2    21    28    1
     3    22    23   ar
     4    24    25   ar
     5    24    17    1
     6    26    21   ar
     7    17    19   am
     8     2     3   ar
     9     6     5    1
    10     6     7    1
    11     7     8    1
    12     8    11    1
    13    12    11    1
    14    12    13    1
    15    14    13    1
    16    16    15    1
    17     9    11    1
    18     9    10    1
    19    10     6    1
    20    19     1    1
    21     5     4   ar
    22     5     1   ar
    23    21    22   ar
    24    23    24   ar
    25    25    26   ar
    26    17    18    2
    27     1     2   ar
    28     3     4   ar
    29    13    15    2
    30    19    20    1
@<TRIPOS>MOLECULE
MolPort-005-127-121 14980547 CHEMBL1502375 CSSS00159539851 PubChem-24817414 ZINC000014980547
 28 30 0 0 0
SMALL
GASTEIGER

@<TRIPOS>ATOM
      1 C           8.9004   41.9003   11.6865 C.ar    1  UNL1        0.1328
      2 C           8.8013   41.7360   13.0554 C.ar    1  UNL1        0.0565
      3 C           9.9411   41.0049   13.3749 C.ar    1  UNL1        0.1230
      4 N          10.6557   40.7616   12.2556 N.ar    1  UNL1       -0.1666
      5 N          10.0155   41.3089   11.2379 N.ar    1  UNL1       -0.2394
      6 C          10.4679   41.2650    9.8531 C.3     1  UNL1        0.1093
      7 C          11.3412   40.0413    9.6263 C.3     1  UNL1        0.0418
      8 C          11.8191   39.9982    8.1758 C.3     1  UNL1        0.0744
      9 C          11.7380   42.4728    8.0699 C.3     1  UNL1        0.0744
     10 C          11.2568   42.5214    9.5197 C.3     1  UNL1        0.0418
     11 N          12.4817   41.2426    7.7552 N.3     1  UNL1       -0.2691
     12 C          13.9145   41.2982    8.0840 C.3     1  UNL1        0.0946
     13 C          14.7127   42.2576    7.2471 C.2     1  UNL1       -0.0322
     14 C          16.1012   42.6134    7.6785 C.3     1  UNL1        0.0274
     15 C          14.1186   42.8788    6.2210 C.2     1  UNL1       -0.0329
     16 C          14.8104   43.8985    5.3741 C.3     1  UNL1        0.0301
     17 C           6.6728   42.1178   10.4622 C.2     1  UNL1        0.2505
     18 O           6.2514   41.0053   10.8813 O.2     1  UNL1       -0.2698
     19 N           7.9735   42.5906   10.8385 N.am    1  UNL1       -0.2660
     20 H           8.2540   43.4651   10.4838 H       1  UNL1        0.1566
     21 C           4.2018   44.5028    7.8953 C.ar    1  UNL1        0.1387
     22 C           5.6003   44.5593    7.7857 C.ar    1  UNL1        0.0370
     23 C           6.4045   43.7814    8.6229 C.ar    1  UNL1        0.0076
     24 C           5.8239   42.9376    9.5798 C.ar    1  UNL1        0.0539
     25 C           4.4268   42.8831    9.6868 C.ar    1  UNL1        0.0076
     26 C           3.6221   43.6610    8.8496 C.ar    1  UNL1        0.0370
     27 C           2.0279   45.5821    7.4187 C.3     1  UNL1        0.2525
     28 O           3.3700   45.2677    7.0732 O.3     1  UNL1       -0.4714
@<TRIPOS>BOND
     1    27    28    1
     2    21    28    1
     3    22    23   ar
     4    24    25   ar
     5    24    17    1
     6    26    21   ar
     7    17    19   am
     8     2     3   ar
     9     6     5    1
    10     6     7    1
    11     7     8    1
    12     8    11    1
    13    12    11    1
    14    12    13    1
    15    14    13    1
    16    16    15    1
    17     9    11    1
    18     9    10    1
    19    10     6    1
    20    19     1    1
    21     5     4   ar
    22     5     1   ar
    23    21    22   ar
    24    23    24   ar
    25    25    26   ar
    26    17    18    2
    27     1     2   ar
    28     3     4   ar
    29    13    15    2
    30    19    20    1
@<TRIPOS>MOLECULE
MolPort-005-127-121 14980547 CHEMBL1502375 CSSS00159539851 PubChem-24817414 ZINC000014980547
 28 30 0 0 0
SMALL
GASTEIGER

@<TRIPOS>ATOM
      1 C          12.0305   39.9707   10.6609 C.ar    1  UNL1        0.1328
      2 C          12.5128   39.3729   11.8102 C.ar    1  UNL1        0.0565
      3 C          13.8896   39.3571   11.6109 C.ar    1  UNL1        0.1230
      4 N          14.1843   39.9132   10.4165 N.ar    1  UNL1       -0.1666
      5 N          13.0496   40.2816    9.8490 N.ar    1  UNL1       -0.2394
      6 C          12.9447   40.9235    8.5447 C.3     1  UNL1        0.1093
      7 C          14.3289   41.1333    7.9517 C.3     1  UNL1        0.0418
      8 C          14.2188   41.8105    6.5867 C.3     1  UNL1        0.0744
      9 C          12.1357   42.9414    7.3099 C.3     1  UNL1        0.0744
     10 C          12.2394   42.2642    8.6760 C.3     1  UNL1        0.0418
     11 N          13.4346   43.0546    6.6275 N.3     1  UNL1       -0.2691
     12 C          14.2166   44.2426    7.0034 C.3     1  UNL1        0.0946
     13 C          15.6857   44.1469    6.7022 C.2     1  UNL1       -0.0322
     14 C          16.1252   43.9998    5.2788 C.3     1  UNL1        0.0274
     15 C          16.5548   44.0517    7.7157 C.2     1  UNL1       -0.0329
     16 C          18.0270   43.8852    7.5145 C.3     1  UNL1        0.0301
     17 C           9.7852   41.1077   11.0781 C.2     1  UNL1        0.2505
     18 O          10.2042   41.7230   12.0963 O.2     1  UNL1       -0.2698
     19 N          10.6574   40.2357   10.3462 N.am    1  UNL1       -0.2660
     20 H          10.2803   39.7796    9.5594 H       1  UNL1        0.1566
     21 C           5.7272   41.6248    9.7942 C.ar    1  UNL1        0.1387
     22 C           6.0371   41.5759   11.1626 C.ar    1  UNL1        0.0370
     23 C           7.3601   41.4073   11.5797 C.ar    1  UNL1        0.0076
     24 C           8.3904   41.2854   10.6372 C.ar    1  UNL1        0.0539
     25 C           8.0779   41.3348    9.2711 C.ar    1  UNL1        0.0076
     26 C           6.7547   41.5034    8.8536 C.ar    1  UNL1        0.0370
     27 C           3.2902   41.7058   10.2094 C.3     1  UNL1        0.2525
     28 O           4.4147   41.7923    9.3447 O.3     1  UNL1       -0.4714
@<TRIPOS>BOND
     1    27    28    1
     2    21    28    1
     3    22    23   ar
     4    24    25   ar
     5    24    17    1
     6    26    21   ar
     7    17    19   am
     8     2     3   ar
     9     6     5    1
    10     6     7    1
    11     7     8    1
    12     8    11    1
    13    12    11    1
    14    12    13    1
    15    14    13    1
    16    16    15    1
    17     9    11    1
    18     9    10    1
    19    10     6    1
    20    19     1    1
    21     5     4   ar
    22     5     1   ar
    23    21    22   ar
    24    23    24   ar
    25    25    26   ar
    26    17    18    2
    27     1     2   ar
    28     3     4   ar
    29    13    15    2
    30    19    20    1
@<TRIPOS>MOLECULE
MolPort-005-127-121 14980547 CHEMBL1502375 CSSS00159539851 PubChem-24817414 ZINC000014980547
 28 30 0 0 0
SMALL
GASTEIGER

@<TRIPOS>ATOM
      1 C          14.5265   36.1896    8.7877 C.ar    1  UNL1        0.1328
      2 C          14.4915   34.8952    8.3038 C.ar    1  UNL1        0.0565
      3 C          15.7245   34.3759    8.6851 C.ar    1  UNL1        0.1230
      4 N          16.4297   35.3159    9.3499 N.ar    1  UNL1       -0.1666
      5 N          15.6938   36.4115    9.4061 N.ar    1  UNL1       -0.2394
      6 C          16.1055   37.6552   10.0450 C.3     1  UNL1        0.1093
      7 C          15.4175   38.8373    9.3813 C.3     1  UNL1        0.0418
      8 C          15.8528   40.1411   10.0481 C.3     1  UNL1        0.0744
      9 C          18.0451   39.1296   10.6066 C.3     1  UNL1        0.0744
     10 C          17.6134   37.8220    9.9435 C.3     1  UNL1        0.0418
     11 N          17.3148   40.2995   10.0933 N.3     1  UNL1       -0.2691
     12 C          17.8908   40.8881    8.8743 C.3     1  UNL1        0.0946
     13 C          17.1598   42.0939    8.3549 C.2     1  UNL1       -0.0322
     14 C          15.7188   41.9586    7.9727 C.3     1  UNL1        0.0274
     15 C          17.8450   43.2179    8.1121 C.2     1  UNL1       -0.0329
     16 C          17.2186   44.4457    7.5326 C.3     1  UNL1        0.0301
     17 C          12.4483   37.4127    9.6205 C.2     1  UNL1        0.2505
     18 O          12.3787   36.7258   10.6760 O.2     1  UNL1       -0.2698
     19 N          13.4934   37.1760    8.6673 N.am    1  UNL1       -0.2660
     20 H          13.5021   37.7399    7.8603 H       1  UNL1        0.1566
     21 C           9.5421   40.4753    8.8741 C.ar    1  UNL1        0.1387
     22 C          10.3900   40.5594    9.9898 C.ar    1  UNL1        0.0370
     23 C          11.3368   39.5605   10.2319 C.ar    1  UNL1        0.0076
     24 C          11.4496   38.4655    9.3642 C.ar    1  UNL1        0.0539
     25 C          10.6015   38.3843    8.2505 C.ar    1  UNL1        0.0076
     26 C           9.6543   39.3832    8.0081 C.ar    1  UNL1        0.0370
     27 C           8.4682   42.0871    7.3356 C.3     1  UNL1        0.2525
     28 O           8.5853   41.4574    8.6042 O.3     1  UNL1       -0.4714
@<TRIPOS>BOND
     1    27    28    1
     2    21    28    1
     3    22    23   ar
     4    24    25   ar
     5    24    17    1
     6    26    21   ar
     7    17    19   am
     8     2     3   ar
     9     6     5    1
    10     6     7    1
    11     7     8    1
    12     8    11    1
    13    12    11    1
    14    12    13    1
    15    14    13    1
    16    16    15    1
    17     9    11    1
    18     9    10    1
    19    10     6    1
    20    19     1    1
    21     5     4   ar
    22     5     1   ar
    23    21    22   ar
    24    23    24   ar
    25    25    26   ar
    26    17    18    2
    27     1     2   ar
    28     3     4   ar
    29    13    15    2
    30    19    20    1
@<TRIPOS>MOLECULE
MolPort-005-127-121 14980547 CHEMBL1502375 CSSS00159539851 PubChem-24817414 ZINC000014980547
 28 30 0 0 0
SMALL
GASTEIGER

@<TRIPOS>ATOM
      1 C          10.6258   39.6247    4.8490 C.ar    1  UNL1        0.1328
      2 C          10.4418   39.3824    3.5005 C.ar    1  UNL1        0.0565
      3 C           9.1696   38.8221    3.4452 C.ar    1  UNL1        0.1230
      4 N           8.6501   38.7456    4.6890 N.ar    1  UNL1       -0.1666
      5 N           9.5415   39.2349    5.5322 N.ar    1  UNL1       -0.2394
      6 C           9.3553   39.3271    6.9749 C.3     1  UNL1        0.1093
      7 C           8.5651   40.5788    7.3217 C.3     1  UNL1        0.0418
      8 C           8.3743   40.6776    8.8343 C.3     1  UNL1        0.0744
      9 C          10.5099   39.4713    9.1879 C.3     1  UNL1        0.0744
     10 C          10.7042   39.3670    7.6755 C.3     1  UNL1        0.0418
     11 N           9.6415   40.5939    9.5769 N.3     1  UNL1       -0.2691
     12 C          10.3393   41.8814    9.7166 C.3     1  UNL1        0.0946
     13 C           9.4590   43.0308   10.1193 C.2     1  UNL1       -0.0322
     14 C           8.8225   43.0158   11.4741 C.3     1  UNL1        0.0274
     15 C           9.1504   43.9654    9.2121 C.2     1  UNL1       -0.0329
     16 C           8.2295   45.1078    9.4993 C.3     1  UNL1        0.0301
     17 C          11.9047   41.5603    5.9101 C.2     1  UNL1        0.2505
     18 O          10.9418   42.3642    5.7774 O.2     1  UNL1       -0.2698
     19 N          11.7845   40.2027    5.4639 N.am    1  UNL1       -0.2660
     20 H          12.5655   39.6169    5.5909 H       1  UNL1        0.1566
     21 C          15.5623   42.8944    7.7059 C.ar    1  UNL1        0.1387
     22 C          14.9525   41.7060    8.1382 C.ar    1  UNL1        0.0370
     23 C          13.7604   41.2723    7.5520 C.ar    1  UNL1        0.0076
     24 C          13.1617   42.0186    6.5275 C.ar    1  UNL1        0.0539
     25 C          13.7732   43.2051    6.0978 C.ar    1  UNL1        0.0076
     26 C          14.9656   43.6391    6.6839 C.ar    1  UNL1        0.0370
     27 C          18.0283   43.0863    7.7021 C.3     1  UNL1        0.2525
     28 O          16.7543   43.3551    8.2715 O.3     1  UNL1       -0.4714
@<TRIPOS>BOND
     1    27    28    1
     2    21    28    1
     3    22    23   ar
     4    24    25   ar
     5    24    17    1
     6    26    21   ar
     7    17    19   am
     8     2     3   ar
     9     6     5    1
    10     6     7    1
    11     7     8    1
    12     8    11    1
    13    12    11    1
    14    12    13    1
    15    14    13    1
    16    16    15    1
    17     9    11    1
    18     9    10    1
    19    10     6    1
    20    19     1    1
    21     5     4   ar
    22     5     1   ar
    23    21    22   ar
    24    23    24   ar
    25    25    26   ar
    26    17    18    2
    27     1     2   ar
    28     3     4   ar
    29    13    15    2
    30    19    20    1
@<TRIPOS>MOLECULE
MolPort-005-127-121 14980547 CHEMBL1502375 CSSS00159539851 PubChem-24817414 ZINC000014980547
 28 30 0 0 0
SMALL
GASTEIGER

@<TRIPOS>ATOM
      1 C          12.8213   41.9921    7.7886 C.ar    1  UNL1        0.1328
      2 C          12.9473   42.6516    6.5802 C.ar    1  UNL1        0.0565
      3 C          14.3149   42.6045    6.3293 C.ar    1  UNL1        0.1230
      4 N          14.9412   41.9560    7.3343 N.ar    1  UNL1       -0.1666
      5 N          14.0261   41.5892    8.2135 N.ar    1  UNL1       -0.2394
      6 C          14.3041   40.8615    9.4455 C.3     1  UNL1        0.1093
      7 C          15.7795   40.5021    9.5194 C.3     1  UNL1        0.0418
      8 C          16.0696   39.7352   10.8085 C.3     1  UNL1        0.0744
      9 C          13.7646   38.8253   10.7923 C.3     1  UNL1        0.0744
     10 C          13.4681   39.5928    9.5043 C.3     1  UNL1        0.0418
     11 N          15.1997   38.5618   10.9836 N.3     1  UNL1       -0.2691
     12 C          15.6892   37.3485   10.3109 C.3     1  UNL1        0.0946
     13 C          14.6104   36.4559    9.7654 C.2     1  UNL1       -0.0322
     14 C          14.5340   36.2318    8.2873 C.3     1  UNL1        0.0274
     15 C          13.6616   35.9991   10.5917 C.2     1  UNL1       -0.0329
     16 C          12.5121   35.1618   10.1299 C.3     1  UNL1        0.0301
     17 C          10.9693   42.6794    9.4029 C.2     1  UNL1        0.2505
     18 O          11.4740   43.8163    9.6117 O.2     1  UNL1       -0.2698
     19 N          11.6061   41.7545    8.5107 N.am    1  UNL1       -0.2660
     20 H          11.1708   40.8807    8.3832 H       1  UNL1        0.1566
     21 C           7.3269   41.5697   11.3738 C.ar    1  UNL1        0.1387
     22 C           7.2940   42.1361   10.0896 C.ar    1  UNL1        0.0370
     23 C           8.4819   42.4973    9.4483 C.ar    1  UNL1        0.0076
     24 C           9.7173   42.2981   10.0800 C.ar    1  UNL1        0.0539
     25 C           9.7470   41.7320   11.3626 C.ar    1  UNL1        0.0076
     26 C           8.5590   41.3706   12.0042 C.ar    1  UNL1        0.0370
     27 C           4.9388   40.9256   11.3626 C.3     1  UNL1        0.2525
     28 O           6.1571   41.1978   12.0417 O.3     1  UNL1       -0.4714
@<TRIPOS>BOND
     1    27    28    1
     2    21    28    1
     3    22    23   ar
     4    24    25   ar
     5    24    17    1
     6    26    21   ar
     7    17    19   am
     8     2     3   ar
     9     6     5    1
    10     6     7    1
    11     7     8    1
    12     8    11    1
    13    12    11    1
    14    12    13    1
    15    14    13    1
    16    16    15    1
    17     9    11    1
    18     9    10    1
    19    10     6    1
    20    19     1    1
    21     5     4   ar
    22     5     1   ar
    23    21    22   ar
    24    23    24   ar
    25    25    26   ar
    26    17    18    2
    27     1     2   ar
    28     3     4   ar
    29    13    15    2
    30    19    20    1
@<TRIPOS>MOLECULE
MolPort-005-127-121 14980547 CHEMBL1502375 CSSS00159539851 PubChem-24817414 ZINC000014980547
 28 30 0 0 0
SMALL
GASTEIGER

@<TRIPOS>ATOM
      1 C           9.5030   41.6196    7.0611 C.ar    1  UNL1        0.1328
      2 C           8.5230   41.9347    6.1385 C.ar    1  UNL1        0.0565
      3 C           7.4498   41.1381    6.5247 C.ar    1  UNL1        0.1230
      4 N           7.7908   40.4061    7.6067 N.ar    1  UNL1       -0.1666
      5 N           9.0378   40.7060    7.9233 N.ar    1  UNL1       -0.2394
      6 C           9.7733   40.1234    9.0386 C.3     1  UNL1        0.1093
      7 C          10.3623   41.2225    9.9083 C.3     1  UNL1        0.0418
      8 C          11.1372   40.6115   11.0746 C.3     1  UNL1        0.0744
      9 C          11.6670   38.6261    9.6893 C.3     1  UNL1        0.0744
     10 C          10.8905   39.2316    8.5204 C.3     1  UNL1        0.0418
     11 N          12.1524   39.6396   10.6395 N.3     1  UNL1       -0.2691
     12 C          13.4428   40.2448   10.2753 C.3     1  UNL1        0.0946
     13 C          14.6481   39.4615   10.7132 C.2     1  UNL1       -0.0322
     14 C          14.5750   38.6673   11.9800 C.3     1  UNL1        0.0274
     15 C          15.7979   39.6041   10.0428 C.2     1  UNL1       -0.0329
     16 C          17.0655   38.9195   10.4431 C.3     1  UNL1        0.0301
     17 C          11.9301   41.7742    6.2909 C.2     1  UNL1        0.2505
     18 O          11.7841   40.8805    5.4129 O.2     1  UNL1       -0.2698
     19 N          10.8277   42.1638    7.1214 N.am    1  UNL1       -0.2660
     20 H          10.9954   42.8658    7.7910 H       1  UNL1        0.1566
     21 C          15.7464   43.6618    6.7971 C.ar    1  UNL1        0.1387
     22 C          15.4402   42.4831    7.4956 C.ar    1  UNL1        0.0370
     23 C          14.1961   41.8689    7.3297 C.ar    1  UNL1        0.0076
     24 C          13.2418   42.4227    6.4651 C.ar    1  UNL1        0.0539
     25 C          13.5505   43.5999    5.7686 C.ar    1  UNL1        0.0076
     26 C          14.7949   44.2145    5.9343 C.ar    1  UNL1        0.0370
     27 C          17.9431   43.9020    7.9083 C.3     1  UNL1        0.2525
     28 O          16.9812   44.3001    6.9409 O.3     1  UNL1       -0.4714
@<TRIPOS>BOND
     1    27    28    1
     2    21    28    1
     3    22    23   ar
     4    24    25   ar
     5    24    17    1
     6    26    21   ar
     7    17    19   am
     8     2     3   ar
     9     6     5    1
    10     6     7    1
    11     7     8    1
    12     8    11    1
    13    12    11    1
    14    12    13    1
    15    14    13    1
    16    16    15    1
    17     9    11    1
    18     9    10    1
    19    10     6    1
    20    19     1    1
    21     5     4   ar
    22     5     1   ar
    23    21    22   ar
    24    23    24   ar
    25    25    26   ar
    26    17    18    2
    27     1     2   ar
    28     3     4   ar
    29    13    15    2
    30    19    20    1
@<TRIPOS>MOLECULE
MolPort-005-127-121 14980547 CHEMBL1502375 CSSS00159539851 PubChem-24817414 ZINC000014980547
 28 30 0 0 0
SMALL
GASTEIGER

@<TRIPOS>ATOM
      1 C          12.7422   39.7663   10.2178 C.ar    1  UNL1        0.1328
      2 C          13.7457   39.6341   11.1592 C.ar    1  UNL1        0.0565
      3 C          14.8817   39.4079   10.3886 C.ar    1  UNL1        0.1230
      4 N          14.5527   39.4094    9.0792 N.ar    1  UNL1       -0.1666
      5 N          13.2530   39.6275    8.9873 N.ar    1  UNL1       -0.2394
      6 C          12.5111   39.7017    7.7349 C.3     1  UNL1        0.1093
      7 C          12.5682   41.1143    7.1756 C.3     1  UNL1        0.0418
      8 C          11.7864   41.1929    5.8654 C.3     1  UNL1        0.0744
      9 C          10.2808   39.3873    6.6495 C.3     1  UNL1        0.0744
     10 C          11.0613   39.3026    7.9607 C.3     1  UNL1        0.0418
     11 N          10.4067   40.6982    5.9927 N.3     1  UNL1       -0.2691
     12 C           9.4499   41.7098    6.4675 C.3     1  UNL1        0.0946
     13 C           8.0060   41.3648    6.2342 C.2     1  UNL1       -0.0322
     14 C           7.0001   42.4708    6.1579 C.3     1  UNL1        0.0274
     15 C           7.6325   40.0795    6.2427 C.2     1  UNL1       -0.0329
     16 C           6.2112   39.6422    6.0869 C.3     1  UNL1        0.0301
     17 C          10.7184   41.2995   10.4664 C.2     1  UNL1        0.2505
     18 O          11.3853   42.3403   10.2156 O.2     1  UNL1       -0.2698
     19 N          11.3541   40.0140   10.4762 N.am    1  UNL1       -0.2660
     20 H          10.7882   39.2341   10.6780 H       1  UNL1        0.1566
     21 C           6.5231   41.6047   11.2969 C.ar    1  UNL1        0.1387
     22 C           6.9816   41.5549    9.9709 C.ar    1  UNL1        0.0370
     23 C           8.3492   41.4554    9.7016 C.ar    1  UNL1        0.0076
     24 C           9.2765   41.4044   10.7515 C.ar    1  UNL1        0.0539
     25 C           8.8157   41.4542   12.0749 C.ar    1  UNL1        0.0076
     26 C           7.4478   41.5537   12.3446 C.ar    1  UNL1        0.0370
     27 C           4.2409   40.6523   11.3462 C.3     1  UNL1        0.2525
     28 O           5.1625   41.7040   11.5995 O.3     1  UNL1       -0.4714
@<TRIPOS>BOND
     1    27    28    1
     2    21    28    1
     3    22    23   ar
     4    24    25   ar
     5    24    17    1
     6    26    21   ar
     7    17    19   am
     8     2     3   ar
     9     6     5    1
    10     6     7    1
    11     7     8    1
    12     8    11    1
    13    12    11    1
    14    12    13    1
    15    14    13    1
    16    16    15    1
    17     9    11    1
    18     9    10    1
    19    10     6    1
    20    19     1    1
    21     5     4   ar
    22     5     1   ar
    23    21    22   ar
    24    23    24   ar
    25    25    26   ar
    26    17    18    2
    27     1     2   ar
    28     3     4   ar
    29    13    15    2
    30    19    20    1
