@<TRIPOS>MOLECULE
MolPort-046-958-364 MCULE-2708019974 PubChem-110093584
 33 37 0 0 0
SMALL
GASTEIGER

@<TRIPOS>ATOM
      1 C           9.8110   40.8220    8.5229 C.3     1  UNL1        0.0602
      2 C           9.1998   39.7452    7.6238 C.3     1  UNL1        0.0094
      3 C           7.6750   39.8053    7.6826 C.3     1  UNL1        0.0220
      4 C           7.1948   41.1909    7.2628 C.3     1  UNL1        0.0938
      5 C           9.3032   42.2079    8.1244 C.3     1  UNL1        0.0996
      6 C           7.1032   43.1964    8.8279 C.2     1  UNL1        0.2682
      7 N           7.8429   42.2025    8.0938 N.am    1  UNL1       -0.2744
      8 O           7.7252   44.1604    9.3521 O.2     1  UNL1       -0.2682
      9 C           5.6338   43.1222    9.0010 C.ar    1  UNL1        0.1511
     10 C           3.6292   42.6348    9.6998 C.ar    1  UNL1        0.0492
     11 C           4.9503   42.3477    9.9171 C.ar    1  UNL1        0.0145
     12 C           5.4470   41.4807   11.0329 C.3     1  UNL1        0.0293
     13 C           4.3123   40.5779   11.5404 C.3     1  UNL1        0.0052
     14 C           3.0158   41.3764   11.7543 C.3     1  UNL1        0.0066
     15 C           2.5045   41.9776   10.4356 C.3     1  UNL1        0.0449
     16 N           4.7315   43.7969    8.2535 N.ar    1  UNL1       -0.1687
     17 N           3.5087   43.4958    8.6747 N.ar    1  UNL1       -0.2800
     18 H           2.6651   43.8413    8.3028 H       1  UNL1        0.1886
     19 C          14.1015   39.1852   10.3524 C.3     1  UNL1        0.0521
     20 C          13.3663   39.9881    9.3411 C.ar    1  UNL1        0.0602
     21 C          14.0706   40.6814    8.3552 C.ar    1  UNL1        0.0294
     22 C          13.3696   41.4358    7.4056 C.ar    1  UNL1        0.0521
     23 C          11.9748   41.4791    7.4650 C.ar    1  UNL1        0.0294
     24 C          11.3018   40.7731    8.4656 C.ar    1  UNL1        0.0611
     25 N          12.0086   40.0469    9.3765 N.ar    1  UNL1       -0.2538
     26 N          14.0404   42.1673    6.3710 N.pl3   1  UNL1       -0.2927
     27 H          13.6826   42.0735    5.4586 H       1  UNL1        0.1541
     28 C          15.1791   43.0211    6.5325 C.ar    1  UNL1        0.1632
     29 C          17.0675   43.8440    7.4034 C.ar    1  UNL1        0.0678
     30 C          16.9294   44.7521    6.3540 C.ar    1  UNL1        0.0528
     31 C          18.2011   43.9097    8.3622 C.3     1  UNL1        0.0527
     32 N          16.1044   42.8889    7.5041 N.ar    1  UNL1       -0.2283
     33 S          15.5256   44.3152    5.5287 S.2     1  UNL1       -0.0512
@<TRIPOS>BOND
     1    19    20    1
     2    20    25   ar
     3    21    22   ar
     4    22    26    1
     5    23    24   ar
     6     1    24    1
     7     1     2    1
     8     2     3    1
     9     3     4    1
    10     4     7    1
    11     5     7    1
    12     5     1    1
    13     6     9    1
    14    11     9   ar
    15    12    11    1
    16    12    13    1
    17    13    14    1
    18    14    15    1
    19    15    10    1
    20    28    33   ar
    21    29    32   ar
    22    30    33   ar
    23    31    29    1
    24     7     6   am
    25    17    16   ar
    26    17    10   ar
    27    26    28    1
    28    20    21   ar
    29    22    23   ar
    30    24    25   ar
    31     6     8    2
    32     9    16   ar
    33    10    11   ar
    34    28    32   ar
    35    29    30   ar
    36    17    18    1
    37    26    27    1
@<TRIPOS>MOLECULE
MolPort-046-958-364 MCULE-2708019974 PubChem-110093584
 33 37 0 0 0
SMALL
GASTEIGER

@<TRIPOS>ATOM
      1 C          12.6663   38.0222    8.9611 C.3     1  UNL1        0.0602
      2 C          11.9181   37.4310   10.1578 C.3     1  UNL1        0.0094
      3 C          12.2202   35.9400   10.2907 C.3     1  UNL1        0.0220
      4 C          13.7233   35.7273   10.4392 C.3     1  UNL1        0.0938
      5 C          14.1700   37.7790    9.0927 C.3     1  UNL1        0.0996
      6 C          15.3462   35.6453    8.4798 C.2     1  UNL1        0.2682
      7 N          14.4166   36.3571    9.3183 N.am    1  UNL1       -0.2744
      8 O          16.0617   36.2946    7.6690 O.2     1  UNL1       -0.2682
      9 C          15.4857   34.1712    8.5261 C.ar    1  UNL1        0.1511
     10 C          16.2728   32.1454    8.6701 C.ar    1  UNL1        0.0492
     11 C          16.6602   33.4588    8.6647 C.ar    1  UNL1        0.0145
     12 C          18.0634   33.9197    8.9133 C.3     1  UNL1        0.0293
     13 C          19.0472   32.7685    8.6543 C.3     1  UNL1        0.0052
     14 C          18.5738   31.4675    9.3233 C.3     1  UNL1        0.0066
     15 C          17.2295   30.9977    8.7455 C.3     1  UNL1        0.0449
     16 N          14.4639   33.2933    8.4109 N.ar    1  UNL1       -0.1687
     17 N          14.9434   32.0577    8.4924 N.ar    1  UNL1       -0.2800
     18 H          14.4192   31.2265    8.4332 H       1  UNL1        0.1886
     19 C          10.4089   42.0968   10.6151 C.3     1  UNL1        0.0521
     20 C          11.2980   41.4424    9.6207 C.ar    1  UNL1        0.0602
     21 C          11.8536   42.1921    8.5825 C.ar    1  UNL1        0.0294
     22 C          12.6910   41.5672    7.6493 C.ar    1  UNL1        0.0521
     23 C          12.9537   40.2014    7.7773 C.ar    1  UNL1        0.0294
     24 C          12.3805   39.4813    8.8287 C.ar    1  UNL1        0.0611
     25 N          11.5699   40.1143    9.7225 N.ar    1  UNL1       -0.2538
     26 N          13.2891   42.2873    6.5635 N.pl3   1  UNL1       -0.2927
     27 H          12.8159   42.2614    5.7005 H       1  UNL1        0.1541
     28 C          14.5065   43.0408    6.6090 C.ar    1  UNL1        0.1632
     29 C          16.5396   43.6885    7.2786 C.ar    1  UNL1        0.0678
     30 C          16.3675   44.6237    6.2584 C.ar    1  UNL1        0.0528
     31 C          17.7705   43.6428    8.1102 C.3     1  UNL1        0.0527
     32 N          15.5157   42.8149    7.4739 N.ar    1  UNL1       -0.2283
     33 S          14.8519   44.3195    5.5853 S.2     1  UNL1       -0.0512
@<TRIPOS>BOND
     1    19    20    1
     2    20    25   ar
     3    21    22   ar
     4    22    26    1
     5    23    24   ar
     6     1    24    1
     7     1     2    1
     8     2     3    1
     9     3     4    1
    10     4     7    1
    11     5     7    1
    12     5     1    1
    13     6     9    1
    14    11     9   ar
    15    12    11    1
    16    12    13    1
    17    13    14    1
    18    14    15    1
    19    15    10    1
    20    28    33   ar
    21    29    32   ar
    22    30    33   ar
    23    31    29    1
    24     7     6   am
    25    17    16   ar
    26    17    10   ar
    27    26    28    1
    28    20    21   ar
    29    22    23   ar
    30    24    25   ar
    31     6     8    2
    32     9    16   ar
    33    10    11   ar
    34    28    32   ar
    35    29    30   ar
    36    17    18    1
    37    26    27    1
@<TRIPOS>MOLECULE
MolPort-046-958-364 MCULE-2708019974 PubChem-110093584
 33 37 0 0 0
SMALL
GASTEIGER

@<TRIPOS>ATOM
      1 C          10.3498   41.9094    9.7898 C.3     1  UNL1        0.0602
      2 C          10.2184   42.3163   11.2591 C.3     1  UNL1        0.0094
      3 C           8.7990   42.7966   11.5534 C.3     1  UNL1        0.0220
      4 C           7.7986   41.6978   11.2093 C.3     1  UNL1        0.0938
      5 C           9.3241   40.8324    9.4356 C.3     1  UNL1        0.0996
      6 C           6.9169   41.2649    8.8608 C.2     1  UNL1        0.2682
      7 N           7.9896   41.2835    9.8216 N.am    1  UNL1       -0.2744
      8 O           7.1013   40.7024    7.7471 O.2     1  UNL1       -0.2682
      9 C           5.6031   41.8948    9.1287 C.ar    1  UNL1        0.1511
     10 C           3.6659   42.4204    9.9745 C.ar    1  UNL1        0.0492
     11 C           4.7103   41.5473   10.1228 C.ar    1  UNL1        0.0145
     12 C           4.8278   40.5645   11.2470 C.3     1  UNL1        0.0293
     13 C           3.4458   40.3109   11.8683 C.3     1  UNL1        0.0052
     14 C           2.6968   41.6293   12.1229 C.3     1  UNL1        0.0066
     15 C           2.4259   42.3818   10.8106 C.3     1  UNL1        0.0449
     16 N           5.0675   42.9046    8.4066 N.ar    1  UNL1       -0.1687
     17 N           3.8837   43.2218    8.9176 N.ar    1  UNL1       -0.2800
     18 H           3.2746   43.9189    8.5824 H       1  UNL1        0.1886
     19 C          14.3081   39.2418   11.0745 C.3     1  UNL1        0.0521
     20 C          13.6380   40.1513   10.1094 C.ar    1  UNL1        0.0602
     21 C          14.3025   40.5465    8.9471 C.ar    1  UNL1        0.0294
     22 C          13.6634   41.4041    8.0425 C.ar    1  UNL1        0.0521
     23 C          12.3692   41.8481    8.3231 C.ar    1  UNL1        0.0294
     24 C          11.7336   41.4328    9.4963 C.ar    1  UNL1        0.0611
     25 N          12.3784   40.5979   10.3587 N.ar    1  UNL1       -0.2538
     26 N          14.2974   41.8420    6.8335 N.pl3   1  UNL1       -0.2927
     27 H          14.0302   41.3863    6.0028 H       1  UNL1        0.1541
     28 C          15.2808   42.8766    6.7138 C.ar    1  UNL1        0.1632
     29 C          17.1930   43.9901    7.0382 C.ar    1  UNL1        0.0678
     30 C          16.5934   44.8920    6.1595 C.ar    1  UNL1        0.0528
     31 C          18.5442   44.2236    7.6112 C.3     1  UNL1        0.0527
     32 N          16.4719   42.8786    7.3453 N.ar    1  UNL1       -0.2283
     33 S          15.0890   44.2417    5.7640 S.2     1  UNL1       -0.0512
@<TRIPOS>BOND
     1    19    20    1
     2    20    25   ar
     3    21    22   ar
     4    22    26    1
     5    23    24   ar
     6     1    24    1
     7     1     2    1
     8     2     3    1
     9     3     4    1
    10     4     7    1
    11     5     7    1
    12     5     1    1
    13     6     9    1
    14    11     9   ar
    15    12    11    1
    16    12    13    1
    17    13    14    1
    18    14    15    1
    19    15    10    1
    20    28    33   ar
    21    29    32   ar
    22    30    33   ar
    23    31    29    1
    24     7     6   am
    25    17    16   ar
    26    17    10   ar
    27    26    28    1
    28    20    21   ar
    29    22    23   ar
    30    24    25   ar
    31     6     8    2
    32     9    16   ar
    33    10    11   ar
    34    28    32   ar
    35    29    30   ar
    36    17    18    1
    37    26    27    1
@<TRIPOS>MOLECULE
MolPort-046-958-364 MCULE-2708019974 PubChem-110093584
 33 37 0 0 0
SMALL
GASTEIGER

@<TRIPOS>ATOM
      1 C          13.4676   39.4443   10.3929 C.3     1  UNL1        0.0602
      2 C          12.8937   38.1325    9.8531 C.3     1  UNL1        0.0094
      3 C          11.3733   38.1185    9.9950 C.3     1  UNL1        0.0220
      4 C          10.7732   39.3107    9.2568 C.3     1  UNL1        0.0938
      5 C          12.8410   40.6410    9.6769 C.3     1  UNL1        0.0996
      6 C          10.6115   41.6539   10.2386 C.2     1  UNL1        0.2682
      7 N          11.3853   40.5437    9.7459 N.am    1  UNL1       -0.2744
      8 O          11.1862   42.7572   10.4468 O.2     1  UNL1       -0.2682
      9 C           9.1617   41.5444   10.5223 C.ar    1  UNL1        0.1511
     10 C           6.9939   41.4364   10.3392 C.ar    1  UNL1        0.0492
     11 C           8.1351   41.6029    9.6009 C.ar    1  UNL1        0.0145
     12 C           8.1627   41.6742    8.1051 C.3     1  UNL1        0.0293
     13 C           6.7729   42.0548    7.5725 C.3     1  UNL1        0.0052
     14 C           5.6690   41.2232    8.2463 C.3     1  UNL1        0.0066
     15 C           5.6155   41.4852    9.7597 C.3     1  UNL1        0.0449
     16 N           8.6233   41.3941   11.7535 N.ar    1  UNL1       -0.1687
     17 N           7.3013   41.3344   11.6436 N.ar    1  UNL1       -0.2800
     18 H           6.6612   41.2335   12.3848 H       1  UNL1        0.1886
     19 C          17.8625   37.3175   11.1648 C.3     1  UNL1        0.0521
     20 C          17.0679   38.4486   10.6198 C.ar    1  UNL1        0.0602
     21 C          17.7127   39.5118    9.9855 C.ar    1  UNL1        0.0294
     22 C          16.9560   40.5741    9.4745 C.ar    1  UNL1        0.0521
     23 C          15.5661   40.5476    9.6108 C.ar    1  UNL1        0.0294
     24 C          14.9534   39.4676   10.2517 C.ar    1  UNL1        0.0611
     25 N          15.7137   38.4473   10.7392 N.ar    1  UNL1       -0.2538
     26 N          17.5644   41.6914    8.8136 N.pl3   1  UNL1       -0.2927
     27 H          18.5218   41.8415    8.9876 H       1  UNL1        0.1541
     28 C          16.9184   42.6110    7.9255 C.ar    1  UNL1        0.1632
     29 C          15.3197   43.5019    6.6402 C.ar    1  UNL1        0.0678
     30 C          16.2983   44.4728    6.4286 C.ar    1  UNL1        0.0528
     31 C          13.9790   43.5784    6.0037 C.3     1  UNL1        0.0527
     32 N          15.6588   42.4748    7.4647 N.ar    1  UNL1       -0.2283
     33 S          17.6422   43.9975    7.3290 S.2     1  UNL1       -0.0512
@<TRIPOS>BOND
     1    19    20    1
     2    20    25   ar
     3    21    22   ar
     4    22    26    1
     5    23    24   ar
     6     1    24    1
     7     1     2    1
     8     2     3    1
     9     3     4    1
    10     4     7    1
    11     5     7    1
    12     5     1    1
    13     6     9    1
    14    11     9   ar
    15    12    11    1
    16    12    13    1
    17    13    14    1
    18    14    15    1
    19    15    10    1
    20    28    33   ar
    21    29    32   ar
    22    30    33   ar
    23    31    29    1
    24     7     6   am
    25    17    16   ar
    26    17    10   ar
    27    26    28    1
    28    20    21   ar
    29    22    23   ar
    30    24    25   ar
    31     6     8    2
    32     9    16   ar
    33    10    11   ar
    34    28    32   ar
    35    29    30   ar
    36    17    18    1
    37    26    27    1
@<TRIPOS>MOLECULE
MolPort-046-958-364 MCULE-2708019974 PubChem-110093584
 33 37 0 0 0
SMALL
GASTEIGER

@<TRIPOS>ATOM
      1 C          11.6770   40.8418    6.4399 C.3     1  UNL1        0.0602
      2 C          11.8319   40.5497    7.9339 C.3     1  UNL1        0.0094
      3 C          13.1567   41.1064    8.4505 C.3     1  UNL1        0.0220
      4 C          13.2257   42.6072    8.1872 C.3     1  UNL1        0.0938
      5 C          11.7804   42.3433    6.1713 C.3     1  UNL1        0.0996
      6 C          13.9295   43.6280    5.9639 C.2     1  UNL1        0.2682
      7 N          13.0101   42.8618    6.7650 N.am    1  UNL1       -0.2744
      8 O          13.5825   43.9849    4.8050 O.2     1  UNL1       -0.2682
      9 C          15.2780   44.0042    6.4482 C.ar    1  UNL1        0.1511
     10 C          17.2263   44.0143    7.4221 C.ar    1  UNL1        0.0492
     11 C          16.0917   43.2609    7.2799 C.ar    1  UNL1        0.0145
     12 C          15.9308   41.8764    7.8282 C.3     1  UNL1        0.0293
     13 C          16.9409   41.6406    8.9614 C.3     1  UNL1        0.0052
     14 C          18.3491   42.1115    8.5621 C.3     1  UNL1        0.0066
     15 C          18.3783   43.6244    8.2933 C.3     1  UNL1        0.0449
     16 N          15.9077   45.1654    6.1597 N.ar    1  UNL1       -0.1687
     17 N          17.0931   45.1753    6.7580 N.ar    1  UNL1       -0.2800
     18 H          17.7557   45.9026    6.7217 H       1  UNL1        0.1886
     19 C           9.1880   38.0683    3.1923 C.3     1  UNL1        0.0521
     20 C           9.1806   38.9730    4.3709 C.ar    1  UNL1        0.0602
     21 C           7.9725   39.3085    4.9846 C.ar    1  UNL1        0.0294
     22 C           7.9746   40.1620    6.0954 C.ar    1  UNL1        0.0521
     23 C           9.1902   40.6619    6.5679 C.ar    1  UNL1        0.0294
     24 C          10.3809   40.3056    5.9292 C.ar    1  UNL1        0.0611
     25 N          10.3500   39.4733    4.8508 N.ar    1  UNL1       -0.2538
     26 N           6.7647   40.5400    6.7652 N.pl3   1  UNL1       -0.2927
     27 H           5.9344   40.4974    6.2379 H       1  UNL1        0.1541
     28 C           6.6435   40.9736    8.1250 C.ar    1  UNL1        0.1632
     29 C           7.2599   41.6278   10.1729 C.ar    1  UNL1        0.0678
     30 C           5.8793   41.6863   10.3610 C.ar    1  UNL1        0.0528
     31 C           8.2207   41.9734   11.2527 C.3     1  UNL1        0.0527
     32 N           7.6838   41.2354    8.9415 N.ar    1  UNL1       -0.2283
     33 S           5.1800   41.2193    8.8997 S.2     1  UNL1       -0.0512
@<TRIPOS>BOND
     1    19    20    1
     2    20    25   ar
     3    21    22   ar
     4    22    26    1
     5    23    24   ar
     6     1    24    1
     7     1     2    1
     8     2     3    1
     9     3     4    1
    10     4     7    1
    11     5     7    1
    12     5     1    1
    13     6     9    1
    14    11     9   ar
    15    12    11    1
    16    12    13    1
    17    13    14    1
    18    14    15    1
    19    15    10    1
    20    28    33   ar
    21    29    32   ar
    22    30    33   ar
    23    31    29    1
    24     7     6   am
    25    17    16   ar
    26    17    10   ar
    27    26    28    1
    28    20    21   ar
    29    22    23   ar
    30    24    25   ar
    31     6     8    2
    32     9    16   ar
    33    10    11   ar
    34    28    32   ar
    35    29    30   ar
    36    17    18    1
    37    26    27    1
@<TRIPOS>MOLECULE
MolPort-046-958-364 MCULE-2708019974 PubChem-110093584
 33 37 0 0 0
SMALL
GASTEIGER

@<TRIPOS>ATOM
      1 C          13.9368   39.0562    9.8894 C.3     1  UNL1        0.0602
      2 C          13.3044   38.1681   10.9631 C.3     1  UNL1        0.0094
      3 C          14.2142   36.9824   11.2768 C.3     1  UNL1        0.0220
      4 C          15.5807   37.4843   11.7321 C.3     1  UNL1        0.0938
      5 C          15.3212   39.5315   10.3308 C.3     1  UNL1        0.0996
      6 C          17.4370   38.1903   10.1397 C.2     1  UNL1        0.2682
      7 N          16.1321   38.3802   10.7186 N.am    1  UNL1       -0.2744
      8 O          17.9332   39.1088    9.4319 O.2     1  UNL1       -0.2682
      9 C          18.2166   36.9460   10.3358 C.ar    1  UNL1        0.1511
     10 C          19.0361   34.9365   10.1493 C.ar    1  UNL1        0.0492
     11 C          18.1033   35.7792    9.6064 C.ar    1  UNL1        0.0145
     12 C          17.2917   35.4585    8.3890 C.3     1  UNL1        0.0293
     13 C          17.2600   33.9389    8.1654 C.3     1  UNL1        0.0052
     14 C          18.6643   33.3257    8.2924 C.3     1  UNL1        0.0066
     15 C          19.2350   33.5216    9.7058 C.3     1  UNL1        0.0449
     16 N          19.1525   36.7622   11.2941 N.ar    1  UNL1       -0.1687
     17 N          19.6484   35.5352   11.1852 N.ar    1  UNL1       -0.2800
     18 H          20.3405   35.1356   11.7602 H       1  UNL1        0.1886
     19 C           9.8652   41.6947   10.8348 C.3     1  UNL1        0.0521
     20 C          11.1001   41.4927   10.0335 C.ar    1  UNL1        0.0602
     21 C          11.4218   42.3870    9.0111 C.ar    1  UNL1        0.0294
     22 C          12.5879   42.1892    8.2606 C.ar    1  UNL1        0.0521
     23 C          13.4080   41.0967    8.5517 C.ar    1  UNL1        0.0294
     24 C          13.0555   40.2210    9.5820 C.ar    1  UNL1        0.0611
     25 N          11.9156   40.4373   10.2965 N.ar    1  UNL1       -0.2538
     26 N          12.9680   43.0754    7.1997 N.pl3   1  UNL1       -0.2927
     27 H          12.2378   43.4938    6.6887 H       1  UNL1        0.1541
     28 C          14.3041   43.4127    6.8089 C.ar    1  UNL1        0.1632
     29 C          16.5336   43.5633    6.9012 C.ar    1  UNL1        0.0678
     30 C          16.3478   44.2198    5.6848 C.ar    1  UNL1        0.0528
     31 C          17.8819   43.3585    7.4917 C.3     1  UNL1        0.0527
     32 N          15.4090   43.1175    7.5228 N.ar    1  UNL1       -0.2283
     33 S          14.6865   44.2282    5.3979 S.2     1  UNL1       -0.0512
@<TRIPOS>BOND
     1    19    20    1
     2    20    25   ar
     3    21    22   ar
     4    22    26    1
     5    23    24   ar
     6     1    24    1
     7     1     2    1
     8     2     3    1
     9     3     4    1
    10     4     7    1
    11     5     7    1
    12     5     1    1
    13     6     9    1
    14    11     9   ar
    15    12    11    1
    16    12    13    1
    17    13    14    1
    18    14    15    1
    19    15    10    1
    20    28    33   ar
    21    29    32   ar
    22    30    33   ar
    23    31    29    1
    24     7     6   am
    25    17    16   ar
    26    17    10   ar
    27    26    28    1
    28    20    21   ar
    29    22    23   ar
    30    24    25   ar
    31     6     8    2
    32     9    16   ar
    33    10    11   ar
    34    28    32   ar
    35    29    30   ar
    36    17    18    1
    37    26    27    1
@<TRIPOS>MOLECULE
MolPort-046-958-364 MCULE-2708019974 PubChem-110093584
 33 37 0 0 0
SMALL
GASTEIGER

@<TRIPOS>ATOM
      1 C          12.3603   40.8879   10.1629 C.3     1  UNL1        0.0602
      2 C          12.5979   41.0567    8.6608 C.3     1  UNL1        0.0094
      3 C          14.0666   40.8102    8.3232 C.3     1  UNL1        0.0220
      4 C          14.4749   39.4125    8.7773 C.3     1  UNL1        0.0938
      5 C          12.8014   39.4989   10.6250 C.3     1  UNL1        0.0996
      6 C          15.1658   38.8386   11.1592 C.2     1  UNL1        0.2682
      7 N          14.1774   39.2569   10.1990 N.am    1  UNL1       -0.2744
      8 O          14.7952   38.5241   12.3231 O.2     1  UNL1       -0.2682
      9 C          16.6094   38.7750   10.8328 C.ar    1  UNL1        0.1511
     10 C          18.5597   38.1772   10.0689 C.ar    1  UNL1        0.0492
     11 C          17.2496   37.7818   10.1187 C.ar    1  UNL1        0.0145
     12 C          16.7060   36.5892    9.3937 C.3     1  UNL1        0.0293
     13 C          17.8473   35.6209    9.0474 C.3     1  UNL1        0.0052
     14 C          19.0464   36.3655    8.4374 C.3     1  UNL1        0.0066
     15 C          19.6472   37.3700    9.4333 C.3     1  UNL1        0.0449
     16 N          17.5307   39.6868   11.2177 N.ar    1  UNL1       -0.1687
     17 N          18.7212   39.3200   10.7577 N.ar    1  UNL1       -0.2800
     18 H          19.5699   39.7993   10.8964 H       1  UNL1        0.1886
     19 C           8.7690   41.2270   13.5425 C.3     1  UNL1        0.0521
     20 C           9.1958   41.2862   12.1205 C.ar    1  UNL1        0.0602
     21 C           8.2589   41.5587   11.1223 C.ar    1  UNL1        0.0294
     22 C           8.6698   41.6128    9.7841 C.ar    1  UNL1        0.0521
     23 C          10.0139   41.3920    9.4750 C.ar    1  UNL1        0.0294
     24 C          10.9249   41.1215   10.4995 C.ar    1  UNL1        0.0611
     25 N          10.4981   41.0751   11.7926 N.ar    1  UNL1       -0.2538
     26 N           7.7518   41.8887    8.7181 N.pl3   1  UNL1       -0.2927
     27 H           8.1041   41.8216    7.8013 H       1  UNL1        0.1541
     28 C           6.3729   42.2524    8.8540 C.ar    1  UNL1        0.1632
     29 C           4.1803   42.0291    9.2336 C.ar    1  UNL1        0.0678
     30 C           4.1878   43.3955    8.9543 C.ar    1  UNL1        0.0528
     31 C           2.9317   41.2979    9.5726 C.3     1  UNL1        0.0527
     32 N           5.3832   41.3967    9.1791 N.ar    1  UNL1       -0.2283
     33 S           5.7901   43.8050    8.6267 S.2     1  UNL1       -0.0512
@<TRIPOS>BOND
     1    19    20    1
     2    20    25   ar
     3    21    22   ar
     4    22    26    1
     5    23    24   ar
     6     1    24    1
     7     1     2    1
     8     2     3    1
     9     3     4    1
    10     4     7    1
    11     5     7    1
    12     5     1    1
    13     6     9    1
    14    11     9   ar
    15    12    11    1
    16    12    13    1
    17    13    14    1
    18    14    15    1
    19    15    10    1
    20    28    33   ar
    21    29    32   ar
    22    30    33   ar
    23    31    29    1
    24     7     6   am
    25    17    16   ar
    26    17    10   ar
    27    26    28    1
    28    20    21   ar
    29    22    23   ar
    30    24    25   ar
    31     6     8    2
    32     9    16   ar
    33    10    11   ar
    34    28    32   ar
    35    29    30   ar
    36    17    18    1
    37    26    27    1
@<TRIPOS>MOLECULE
MolPort-046-958-364 MCULE-2708019974 PubChem-110093584
 33 37 0 0 0
SMALL
GASTEIGER

@<TRIPOS>ATOM
      1 C          12.7213   41.6247    8.1759 C.3     1  UNL1        0.0602
      2 C          12.6028   40.5469    9.2555 C.3     1  UNL1        0.0094
      3 C          11.1418   40.1478    9.4511 C.3     1  UNL1        0.0220
      4 C          10.5593   39.6518    8.1315 C.3     1  UNL1        0.0938
      5 C          12.1066   41.1408    6.8623 C.3     1  UNL1        0.0996
      6 C           9.6556   41.1862    6.3124 C.2     1  UNL1        0.2682
      7 N          10.7440   40.6735    7.1039 N.am    1  UNL1       -0.2744
      8 O           9.9132   41.9060    5.3091 O.2     1  UNL1       -0.2682
      9 C           8.2382   40.9081    6.6409 C.ar    1  UNL1        0.1511
     10 C           6.2885   40.8326    7.6091 C.ar    1  UNL1        0.0492
     11 C           7.5597   41.3147    7.7725 C.ar    1  UNL1        0.0145
     12 C           7.9792   42.2070    8.9000 C.3     1  UNL1        0.0293
     13 C           6.9901   42.0759   10.0683 C.3     1  UNL1        0.0052
     14 C           5.5342   42.1485    9.5791 C.3     1  UNL1        0.0066
     15 C           5.2044   40.9867    8.6286 C.3     1  UNL1        0.0449
     16 N           7.3952   40.1788    5.8756 N.ar    1  UNL1       -0.1687
     17 N           6.2079   40.1270    6.4680 N.ar    1  UNL1       -0.2800
     18 H           5.4114   39.6561    6.1317 H       1  UNL1        0.1886
     19 C          16.0952   44.4668    5.9456 C.3     1  UNL1        0.0521
     20 C          15.7729   43.3798    6.9060 C.ar    1  UNL1        0.0602
     21 C          16.7981   42.7413    7.6059 C.ar    1  UNL1        0.0294
     22 C          16.4854   41.7176    8.5096 C.ar    1  UNL1        0.0521
     23 C          15.1490   41.3553    8.6924 C.ar    1  UNL1        0.0294
     24 C          14.1479   42.0154    7.9750 C.ar    1  UNL1        0.0611
     25 N          14.4801   43.0079    7.1026 N.ar    1  UNL1       -0.2538
     26 N          17.4968   41.0277    9.2556 N.pl3   1  UNL1       -0.2927
     27 H          18.3973   41.4258    9.2546 H       1  UNL1        0.1541
     28 C          17.3279   39.8170   10.0021 C.ar    1  UNL1        0.1632
     29 C          16.2977   38.1848   11.1319 C.ar    1  UNL1        0.0678
     30 C          17.5984   37.6904   11.2254 C.ar    1  UNL1        0.0528
     31 C          15.1372   37.4765   11.7322 C.3     1  UNL1        0.0527
     32 N          16.1457   39.3565   10.4582 N.ar    1  UNL1       -0.2283
     33 S          18.5853   38.7930   10.4174 S.2     1  UNL1       -0.0512
@<TRIPOS>BOND
     1    19    20    1
     2    20    25   ar
     3    21    22   ar
     4    22    26    1
     5    23    24   ar
     6     1    24    1
     7     1     2    1
     8     2     3    1
     9     3     4    1
    10     4     7    1
    11     5     7    1
    12     5     1    1
    13     6     9    1
    14    11     9   ar
    15    12    11    1
    16    12    13    1
    17    13    14    1
    18    14    15    1
    19    15    10    1
    20    28    33   ar
    21    29    32   ar
    22    30    33   ar
    23    31    29    1
    24     7     6   am
    25    17    16   ar
    26    17    10   ar
    27    26    28    1
    28    20    21   ar
    29    22    23   ar
    30    24    25   ar
    31     6     8    2
    32     9    16   ar
    33    10    11   ar
    34    28    32   ar
    35    29    30   ar
    36    17    18    1
    37    26    27    1
@<TRIPOS>MOLECULE
MolPort-046-958-364 MCULE-2708019974 PubChem-110093584
 33 37 0 0 0
SMALL
GASTEIGER

@<TRIPOS>ATOM
      1 C          12.3851   39.3412    9.5410 C.3     1  UNL1        0.0602
      2 C          11.9446   37.9159    9.2005 C.3     1  UNL1        0.0094
      3 C          10.4408   37.8718    8.9388 C.3     1  UNL1        0.0220
      4 C          10.0838   38.8288    7.8060 C.3     1  UNL1        0.0938
      5 C          11.9968   40.3068    8.4210 C.3     1  UNL1        0.0996
      6 C           9.7216   41.3288    8.1202 C.2     1  UNL1        0.2682
      7 N          10.5727   40.1672    8.1279 N.am    1  UNL1       -0.2744
      8 O          10.2456   42.4733    8.2009 O.2     1  UNL1       -0.2682
      9 C           8.2462   41.2286    8.0325 C.ar    1  UNL1        0.1511
     10 C           6.1176   41.2008    8.4941 C.ar    1  UNL1        0.0492
     11 C           7.3487   41.3514    9.0745 C.ar    1  UNL1        0.0145
     12 C           7.5586   41.7170   10.5118 C.3     1  UNL1        0.0293
     13 C           6.2973   41.3897   11.3256 C.3     1  UNL1        0.0052
     14 C           5.0289   41.8952   10.6186 C.3     1  UNL1        0.0066
     15 C           4.8324   41.2046    9.2598 C.3     1  UNL1        0.0449
     16 N           7.5540   40.9715    6.8999 N.ar    1  UNL1       -0.1687
     17 N           6.2565   40.9481    7.1813 N.ar    1  UNL1       -0.2800
     18 H           5.5270   40.7766    6.5428 H       1  UNL1        0.1886
     19 C          16.4061   37.4984   11.7477 C.3     1  UNL1        0.0521
     20 C          15.7910   38.5101   10.8500 C.ar    1  UNL1        0.0602
     21 C          16.5875   39.4896   10.2544 C.ar    1  UNL1        0.0294
     22 C          15.9996   40.4396    9.4093 C.ar    1  UNL1        0.0521
     23 C          14.6229   40.3872    9.1792 C.ar    1  UNL1        0.0294
     24 C          13.8555   39.3931    9.7921 C.ar    1  UNL1        0.0611
     25 N          14.4534   38.4813   10.6093 N.ar    1  UNL1       -0.2538
     26 N          16.7683   41.4675    8.7707 N.pl3   1  UNL1       -0.2927
     27 H          17.7374   41.4688    8.9444 H       1  UNL1        0.1541
     28 C          16.2671   42.4928    7.9051 C.ar    1  UNL1        0.1632
     29 C          14.9021   43.5370    6.4740 C.ar    1  UNL1        0.0678
     30 C          15.8738   44.5326    6.5722 C.ar    1  UNL1        0.0528
     31 C          13.6970   43.6897    5.6178 C.3     1  UNL1        0.0527
     32 N          15.1162   42.4119    7.2075 N.ar    1  UNL1       -0.2283
     33 S          17.0459   43.9497    7.6348 S.2     1  UNL1       -0.0512
@<TRIPOS>BOND
     1    19    20    1
     2    20    25   ar
     3    21    22   ar
     4    22    26    1
     5    23    24   ar
     6     1    24    1
     7     1     2    1
     8     2     3    1
     9     3     4    1
    10     4     7    1
    11     5     7    1
    12     5     1    1
    13     6     9    1
    14    11     9   ar
    15    12    11    1
    16    12    13    1
    17    13    14    1
    18    14    15    1
    19    15    10    1
    20    28    33   ar
    21    29    32   ar
    22    30    33   ar
    23    31    29    1
    24     7     6   am
    25    17    16   ar
    26    17    10   ar
    27    26    28    1
    28    20    21   ar
    29    22    23   ar
    30    24    25   ar
    31     6     8    2
    32     9    16   ar
    33    10    11   ar
    34    28    32   ar
    35    29    30   ar
    36    17    18    1
    37    26    27    1
@<TRIPOS>MOLECULE
MolPort-046-958-364 MCULE-2708019974 PubChem-110093584
 33 37 0 0 0
SMALL
GASTEIGER

@<TRIPOS>ATOM
      1 C          12.1668   40.7659    9.3674 C.3     1  UNL1        0.0602
      2 C          11.2587   40.2494   10.4854 C.3     1  UNL1        0.0094
      3 C           9.8094   40.6529   10.2232 C.3     1  UNL1        0.0220
      4 C           9.3573   40.1106    8.8712 C.3     1  UNL1        0.0938
      5 C          11.6935   40.2503    8.0081 C.3     1  UNL1        0.0996
      6 C           9.8356   41.2572    6.6493 C.2     1  UNL1        0.2682
      7 N          10.2781   40.5653    7.8323 N.am    1  UNL1       -0.2744
      8 O          10.6494   41.4341    5.7021 O.2     1  UNL1       -0.2682
      9 C           8.4573   41.7816    6.5078 C.ar    1  UNL1        0.1511
     10 C           6.6088   42.9068    6.7552 C.ar    1  UNL1        0.0492
     11 C           7.8655   42.7617    7.2794 C.ar    1  UNL1        0.0145
     12 C           8.4288   43.6331    8.3596 C.3     1  UNL1        0.0293
     13 C           7.2888   44.3192    9.1276 C.3     1  UNL1        0.0052
     14 C           6.2507   44.9218    8.1667 C.3     1  UNL1        0.0066
     15 C           5.5770   43.8335    7.3161 C.3     1  UNL1        0.0449
     16 N           7.5539   41.3480    5.6001 N.ar    1  UNL1       -0.1687
     17 N           6.4244   42.0291    5.7541 N.ar    1  UNL1       -0.2800
     18 H           5.5998   41.9121    5.2292 H       1  UNL1        0.1886
     19 C          15.4422   37.6682   11.3947 C.3     1  UNL1        0.0521
     20 C          15.1625   38.8829   10.5860 C.ar    1  UNL1        0.0602
     21 C          16.2189   39.6342   10.0682 C.ar    1  UNL1        0.0294
     22 C          15.9463   40.7780    9.3067 C.ar    1  UNL1        0.0521
     23 C          14.6177   41.1447    9.0803 C.ar    1  UNL1        0.0294
     24 C          13.5846   40.3697    9.6140 C.ar    1  UNL1        0.0611
     25 N          13.8782   39.2618   10.3508 N.ar    1  UNL1       -0.2538
     26 N          16.9909   41.5869    8.7501 N.pl3   1  UNL1       -0.2927
     27 H          17.8989   41.4418    9.1019 H       1  UNL1        0.1541
     28 C          16.8453   42.5851    7.7332 C.ar    1  UNL1        0.1632
     29 C          15.8607   43.8600    6.1818 C.ar    1  UNL1        0.0678
     30 C          17.1469   44.3886    6.0755 C.ar    1  UNL1        0.0528
     31 C          14.7326   44.3501    5.3477 C.3     1  UNL1        0.0527
     32 N          15.6917   42.8660    7.0947 N.ar    1  UNL1       -0.2283
     33 S          18.0979   43.5532    7.1891 S.2     1  UNL1       -0.0512
@<TRIPOS>BOND
     1    19    20    1
     2    20    25   ar
     3    21    22   ar
     4    22    26    1
     5    23    24   ar
     6     1    24    1
     7     1     2    1
     8     2     3    1
     9     3     4    1
    10     4     7    1
    11     5     7    1
    12     5     1    1
    13     6     9    1
    14    11     9   ar
    15    12    11    1
    16    12    13    1
    17    13    14    1
    18    14    15    1
    19    15    10    1
    20    28    33   ar
    21    29    32   ar
    22    30    33   ar
    23    31    29    1
    24     7     6   am
    25    17    16   ar
    26    17    10   ar
    27    26    28    1
    28    20    21   ar
    29    22    23   ar
    30    24    25   ar
    31     6     8    2
    32     9    16   ar
    33    10    11   ar
    34    28    32   ar
    35    29    30   ar
    36    17    18    1
    37    26    27    1
