@<TRIPOS>MOLECULE
MolPort-002-958-417 4694967 CSSS00039171529 MCULE-5656315913 PubChem-3897640 ZINC000004694967 ZINC04694967
 17 17 0 0 0
SMALL
GASTEIGER

@<TRIPOS>ATOM
      1 C          12.0697   41.6661    8.5339 C.ar    1  UNL1        0.1123
      2 C          10.8871   41.8029   10.6101 C.ar    1  UNL1        0.1903
      3 N          11.6201   42.9101    8.8097 N.ar    1  UNL1       -0.1440
      4 N          10.9650   42.9886    9.9666 N.ar    1  UNL1       -0.1255
      5 S          11.6447   40.5739    9.7478 S.2     1  UNL1       -0.0346
      6 C           8.8209   41.4915   12.0522 C.2     1  UNL1        0.4070
      7 N          10.2353   41.6092   11.8690 N.am    1  UNL1       -0.2284
      8 O           8.0369   41.5560   11.0657 O.2     1  UNL1       -0.2260
      9 H          10.8036   41.5527   12.6710 H       1  UNL1        0.1602
     10 C           9.1745   41.0924   14.4542 C.3     1  UNL1        0.2574
     11 O           8.3200   41.3039   13.3404 O.3     1  UNL1       -0.4303
     12 C          12.8031   41.3241    7.2799 C.3     1  UNL1        0.0545
     13 C          14.2334   41.8468    7.3133 C.3     1  UNL1        0.0069
     14 C          14.4010   43.0772    6.4303 C.3     1  UNL1        0.0004
     15 C          15.8407   43.5765    6.4257 C.3     1  UNL1        0.0000
     16 C          17.8552   43.9420    7.8566 C.3     1  UNL1        0.0000
     17 C          16.5822   43.1370    7.6784 C.3     1  UNL1        0.0000
@<TRIPOS>BOND
     1    16    17    1
     2    17    15    1
     3    15    14    1
     4    14    13    1
     5    13    12    1
     6    12     1    1
     7     1     5   ar
     8     2     7    1
     9     2     5   ar
    10     6    11    1
    11    10    11    1
    12     3     4   ar
    13     7     6   am
    14     1     3   ar
    15     2     4   ar
    16     6     8    2
    17     7     9    1
@<TRIPOS>MOLECULE
MolPort-002-958-417 4694967 CSSS00039171529 MCULE-5656315913 PubChem-3897640 ZINC000004694967 ZINC04694967
 17 17 0 0 0
SMALL
GASTEIGER

@<TRIPOS>ATOM
      1 C          13.2520   42.3253    6.5077 C.ar    1  UNL1        0.1123
      2 C          12.7532   40.2892    7.6626 C.ar    1  UNL1        0.1903
      3 N          12.1282   41.7218    6.0619 N.ar    1  UNL1       -0.1440
      4 N          11.8473   40.5905    6.7062 N.ar    1  UNL1       -0.1255
      5 S          13.9747   41.4417    7.7503 S.2     1  UNL1       -0.0346
      6 C          12.3161   39.1310    9.8792 C.2     1  UNL1        0.4070
      7 N          12.6896   39.1292    8.4977 N.am    1  UNL1       -0.2284
      8 O          12.0094   40.2077   10.4613 O.2     1  UNL1       -0.2260
      9 H          12.9204   38.2630    8.0906 H       1  UNL1        0.1602
     10 C          12.1077   36.6797    9.9150 C.3     1  UNL1        0.2574
     11 O          12.2962   37.9223   10.5751 O.3     1  UNL1       -0.4303
     12 C          13.7871   43.5880    5.9191 C.3     1  UNL1        0.0545
     13 C          15.0753   44.0192    6.6080 C.3     1  UNL1        0.0069
     14 C          16.2663   43.9549    5.6598 C.3     1  UNL1        0.0004
     15 C          17.5875   43.8958    6.4167 C.3     1  UNL1        0.0000
     16 C          17.5825   43.6023    8.8972 C.3     1  UNL1        0.0000
     17 C          17.5265   42.8927    7.5580 C.3     1  UNL1        0.0000
@<TRIPOS>BOND
     1    16    17    1
     2    17    15    1
     3    15    14    1
     4    14    13    1
     5    13    12    1
     6    12     1    1
     7     1     5   ar
     8     2     7    1
     9     2     5   ar
    10     6    11    1
    11    10    11    1
    12     3     4   ar
    13     7     6   am
    14     1     3   ar
    15     2     4   ar
    16     6     8    2
    17     7     9    1
@<TRIPOS>MOLECULE
MolPort-002-958-417 4694967 CSSS00039171529 MCULE-5656315913 PubChem-3897640 ZINC000004694967 ZINC04694967
 17 17 0 0 0
SMALL
GASTEIGER

@<TRIPOS>ATOM
      1 C          10.3151   40.7094   10.2786 C.ar    1  UNL1        0.1123
      2 C           8.5623   42.3383   10.3243 C.ar    1  UNL1        0.1903
      3 N           9.9392   41.0521   11.5304 N.ar    1  UNL1       -0.1440
      4 N           8.9612   41.9558   11.5574 N.ar    1  UNL1       -0.1255
      5 S           9.4300   41.5537    9.1163 S.2     1  UNL1       -0.0346
      6 C           7.1513   43.7724    8.7756 C.2     1  UNL1        0.4070
      7 N           7.5320   43.2983   10.0711 N.am    1  UNL1       -0.2284
      8 O           7.7329   43.3488    7.7391 O.2     1  UNL1       -0.2260
      9 H           7.0476   43.6605   10.8479 H       1  UNL1        0.1602
     10 C           5.1124   44.6137    7.6852 C.3     1  UNL1        0.2574
     11 O           6.1255   44.7122    8.6749 O.3     1  UNL1       -0.4303
     12 C          11.4135   39.7399    9.9944 C.3     1  UNL1        0.0545
     13 C          12.7767   40.3321   10.3277 C.3     1  UNL1        0.0069
     14 C          13.5198   40.7696    9.0715 C.3     1  UNL1        0.0004
     15 C          15.0148   40.4932    9.1753 C.3     1  UNL1        0.0000
     16 C          15.6337   38.1252    9.6738 C.3     1  UNL1        0.0000
     17 C          15.3153   39.4825   10.2709 C.3     1  UNL1        0.0000
@<TRIPOS>BOND
     1    16    17    1
     2    17    15    1
     3    15    14    1
     4    14    13    1
     5    13    12    1
     6    12     1    1
     7     1     5   ar
     8     2     7    1
     9     2     5   ar
    10     6    11    1
    11    10    11    1
    12     3     4   ar
    13     7     6   am
    14     1     3   ar
    15     2     4   ar
    16     6     8    2
    17     7     9    1
@<TRIPOS>MOLECULE
MolPort-002-958-417 4694967 CSSS00039171529 MCULE-5656315913 PubChem-3897640 ZINC000004694967 ZINC04694967
 17 17 0 0 0
SMALL
GASTEIGER

@<TRIPOS>ATOM
      1 C          12.8231   40.2862   10.3782 C.ar    1  UNL1        0.1123
      2 C          15.0181   39.3461   10.5405 C.ar    1  UNL1        0.1903
      3 N          13.0448   39.6502   11.5496 N.ar    1  UNL1       -0.1440
      4 N          14.2672   39.1298   11.6429 N.ar    1  UNL1       -0.1255
      5 S          14.1751   40.2123    9.3713 S.2     1  UNL1       -0.0346
      6 C          16.9571   37.8058   11.1006 C.2     1  UNL1        0.4070
      7 N          16.3649   38.8907   10.3793 N.am    1  UNL1       -0.2284
      8 O          16.2906   37.1636   11.9582 O.2     1  UNL1       -0.2260
      9 H          16.9275   39.3599    9.7215 H       1  UNL1        0.1602
     10 C          19.2283   38.4259   10.3858 C.3     1  UNL1        0.2574
     11 O          18.2852   37.4675   10.8415 O.3     1  UNL1       -0.4303
     12 C          11.5179   40.9203   10.0296 C.3     1  UNL1        0.0545
     13 C          10.5480   40.8755   11.2032 C.3     1  UNL1        0.0069
     14 C           9.6025   42.0703   11.1945 C.3     1  UNL1        0.0004
     15 C          10.2007   43.2578   10.4502 C.3     1  UNL1        0.0000
     16 C           8.1810   43.8951    9.1257 C.3     1  UNL1        0.0000
     17 C           9.1575   44.3354   10.1994 C.3     1  UNL1        0.0000
@<TRIPOS>BOND
     1    16    17    1
     2    17    15    1
     3    15    14    1
     4    14    13    1
     5    13    12    1
     6    12     1    1
     7     1     5   ar
     8     2     7    1
     9     2     5   ar
    10     6    11    1
    11    10    11    1
    12     3     4   ar
    13     7     6   am
    14     1     3   ar
    15     2     4   ar
    16     6     8    2
    17     7     9    1
@<TRIPOS>MOLECULE
MolPort-002-958-417 4694967 CSSS00039171529 MCULE-5656315913 PubChem-3897640 ZINC000004694967 ZINC04694967
 17 17 0 0 0
SMALL
GASTEIGER

@<TRIPOS>ATOM
      1 C          12.9146   41.7769    7.4493 C.ar    1  UNL1        0.1123
      2 C          10.5622   41.7096    7.0139 C.ar    1  UNL1        0.1903
      3 N          12.1626   41.9300    8.5614 N.ar    1  UNL1       -0.1440
      4 N          10.8532   41.8890    8.3212 N.ar    1  UNL1       -0.1255
      5 S          11.9526   41.5939    6.0751 S.2     1  UNL1       -0.0346
      6 C           8.5825   40.4272    6.0745 C.2     1  UNL1        0.4070
      7 N           9.2346   41.6329    6.4859 N.am    1  UNL1       -0.2284
      8 O           9.1730   39.3153    6.1594 O.2     1  UNL1       -0.2260
      9 H           8.7309   42.4742    6.3989 H       1  UNL1        0.1602
     10 C           6.2236   39.7298    6.1290 C.3     1  UNL1        0.2574
     11 O           7.2815   40.4989    5.5769 O.3     1  UNL1       -0.4303
     12 C          14.4063   41.8198    7.4620 C.3     1  UNL1        0.0545
     13 C          14.9209   43.2524    7.4098 C.3     1  UNL1        0.0069
     14 C          15.2897   43.6639    5.9898 C.3     1  UNL1        0.0004
     15 C          16.5961   44.4474    5.9507 C.3     1  UNL1        0.0000
     16 C          18.1719   44.0257    7.8424 C.3     1  UNL1        0.0000
     17 C          17.7613   43.6043    6.4446 C.3     1  UNL1        0.0000
@<TRIPOS>BOND
     1    16    17    1
     2    17    15    1
     3    15    14    1
     4    14    13    1
     5    13    12    1
     6    12     1    1
     7     1     5   ar
     8     2     7    1
     9     2     5   ar
    10     6    11    1
    11    10    11    1
    12     3     4   ar
    13     7     6   am
    14     1     3   ar
    15     2     4   ar
    16     6     8    2
    17     7     9    1
@<TRIPOS>MOLECULE
MolPort-002-958-417 4694967 CSSS00039171529 MCULE-5656315913 PubChem-3897640 ZINC000004694967 ZINC04694967
 17 17 0 0 0
SMALL
GASTEIGER

@<TRIPOS>ATOM
      1 C           9.9116   41.5574    9.9760 C.ar    1  UNL1        0.1123
      2 C           8.4035   43.1132    8.9597 C.ar    1  UNL1        0.1903
      3 N           9.9598   41.5412    8.6258 N.ar    1  UNL1       -0.1440
      4 N           9.1237   42.4092    8.0588 N.ar    1  UNL1       -0.1255
      5 S           8.7806   42.6758   10.5391 S.2     1  UNL1       -0.0346
      6 C           6.0220   43.8804    8.5288 C.2     1  UNL1        0.4070
      7 N           7.4323   44.1066    8.6174 N.am    1  UNL1       -0.2284
      8 O           5.5380   42.7379    8.7583 O.2     1  UNL1       -0.2260
      9 H           7.7594   45.0157    8.4283 H       1  UNL1        0.1602
     10 C           3.7907   44.7720    7.9992 C.3     1  UNL1        0.2574
     11 O           5.1878   44.9438    8.1840 O.3     1  UNL1       -0.4303
     12 C          10.7325   40.6510   10.8315 C.3     1  UNL1        0.0545
     13 C          12.1129   40.4200   10.2306 C.3     1  UNL1        0.0069
     14 C          13.0512   39.7468   11.2246 C.3     1  UNL1        0.0004
     15 C          14.4161   39.4634   10.6092 C.3     1  UNL1        0.0000
     16 C          16.7569   39.0333   11.3675 C.3     1  UNL1        0.0000
     17 C          15.2974   38.6693   11.5607 C.3     1  UNL1        0.0000
@<TRIPOS>BOND
     1    16    17    1
     2    17    15    1
     3    15    14    1
     4    14    13    1
     5    13    12    1
     6    12     1    1
     7     1     5   ar
     8     2     7    1
     9     2     5   ar
    10     6    11    1
    11    10    11    1
    12     3     4   ar
    13     7     6   am
    14     1     3   ar
    15     2     4   ar
    16     6     8    2
    17     7     9    1
@<TRIPOS>MOLECULE
MolPort-002-958-417 4694967 CSSS00039171529 MCULE-5656315913 PubChem-3897640 ZINC000004694967 ZINC04694967
 17 17 0 0 0
SMALL
GASTEIGER

@<TRIPOS>ATOM
      1 C          14.6012   39.4578   10.6979 C.ar    1  UNL1        0.1123
      2 C          14.9241   40.9445    8.8503 C.ar    1  UNL1        0.1903
      3 N          15.8733   39.4730   10.2426 N.ar    1  UNL1       -0.1440
      4 N          16.0553   40.3027    9.2168 N.ar    1  UNL1       -0.1255
      5 S          13.6149   40.4965    9.8060 S.2     1  UNL1       -0.0346
      6 C          13.7627   41.9753    6.8417 C.2     1  UNL1        0.4070
      7 N          14.8425   41.8868    7.7767 N.am    1  UNL1       -0.2284
      8 O          12.7791   41.1887    6.9184 O.2     1  UNL1       -0.2260
      9 H          15.5865   42.5232    7.6733 H       1  UNL1        0.1602
     10 C          14.4882   44.1811    6.0280 C.3     1  UNL1        0.2574
     11 O          13.8134   42.9461    5.8414 O.3     1  UNL1       -0.4303
     12 C          14.1472   38.5829   11.8184 C.3     1  UNL1        0.0545
     13 C          13.9986   37.1356   11.3674 C.3     1  UNL1        0.0069
     14 C          13.4575   37.0445    9.9459 C.3     1  UNL1        0.0004
     15 C          11.9688   36.7195    9.9286 C.3     1  UNL1        0.0000
     16 C          10.2988   38.0266    8.6088 C.3     1  UNL1        0.0000
     17 C          11.1272   37.9851    9.8785 C.3     1  UNL1        0.0000
@<TRIPOS>BOND
     1    16    17    1
     2    17    15    1
     3    15    14    1
     4    14    13    1
     5    13    12    1
     6    12     1    1
     7     1     5   ar
     8     2     7    1
     9     2     5   ar
    10     6    11    1
    11    10    11    1
    12     3     4   ar
    13     7     6   am
    14     1     3   ar
    15     2     4   ar
    16     6     8    2
    17     7     9    1
@<TRIPOS>MOLECULE
MolPort-002-958-417 4694967 CSSS00039171529 MCULE-5656315913 PubChem-3897640 ZINC000004694967 ZINC04694967
 17 17 0 0 0
SMALL
GASTEIGER

@<TRIPOS>ATOM
      1 C          15.7522   39.9592    9.6780 C.ar    1  UNL1        0.1123
      2 C          15.9518   41.8107    8.1746 C.ar    1  UNL1        0.1903
      3 N          17.0271   40.3738    9.5102 N.ar    1  UNL1       -0.1440
      4 N          17.1395   41.4065    8.6767 N.ar    1  UNL1       -0.1255
      5 S          14.6787   40.8783    8.7560 S.2     1  UNL1       -0.0346
      6 C          16.5870   44.0846    7.2409 C.2     1  UNL1        0.4070
      7 N          15.7914   42.8951    7.2551 N.am    1  UNL1       -0.2284
      8 O          17.5158   44.2473    8.0793 O.2     1  UNL1       -0.2260
      9 H          15.0789   42.8170    6.5803 H       1  UNL1        0.1602
     10 C          15.0504   45.1766    5.6598 C.3     1  UNL1        0.2574
     11 O          16.3202   45.0642    6.2845 O.3     1  UNL1       -0.4303
     12 C          15.3793   38.7985   10.5388 C.3     1  UNL1        0.0545
     13 C          15.0597   37.5667    9.7018 C.3     1  UNL1        0.0069
     14 C          14.2595   36.5418   10.4960 C.3     1  UNL1        0.0004
     15 C          12.8141   36.9831   10.6916 C.3     1  UNL1        0.0000
     16 C          10.7288   37.5141    9.4231 C.3     1  UNL1        0.0000
     17 C          12.2436   37.5877    9.4182 C.3     1  UNL1        0.0000
@<TRIPOS>BOND
     1    16    17    1
     2    17    15    1
     3    15    14    1
     4    14    13    1
     5    13    12    1
     6    12     1    1
     7     1     5   ar
     8     2     7    1
     9     2     5   ar
    10     6    11    1
    11    10    11    1
    12     3     4   ar
    13     7     6   am
    14     1     3   ar
    15     2     4   ar
    16     6     8    2
    17     7     9    1
@<TRIPOS>MOLECULE
MolPort-002-958-417 4694967 CSSS00039171529 MCULE-5656315913 PubChem-3897640 ZINC000004694967 ZINC04694967
 17 17 0 0 0
SMALL
GASTEIGER

@<TRIPOS>ATOM
      1 C           9.9688   41.0523   10.1663 C.ar    1  UNL1        0.1123
      2 C           7.9129   42.2736   10.0682 C.ar    1  UNL1        0.1903
      3 N           9.7248   41.7746   11.2818 N.ar    1  UNL1       -0.1440
      4 N           8.5792   42.4519   11.2302 N.ar    1  UNL1       -0.1255
      5 S           8.7391   41.2437    9.0268 S.2     1  UNL1       -0.0346
      6 C           6.4817   43.9621    8.8247 C.2     1  UNL1        0.4070
      7 N           6.6598   42.8885    9.7540 N.am    1  UNL1       -0.2284
      8 O           7.4681   44.4464    8.2045 O.2     1  UNL1       -0.2260
      9 H           5.8583   42.5467   10.2123 H       1  UNL1        0.1602
     10 C           4.0370   43.6856    8.8484 C.3     1  UNL1        0.2574
     11 O           5.1987   44.4671    8.6138 O.3     1  UNL1       -0.4303
     12 C          11.2049   40.2378    9.9771 C.3     1  UNL1        0.0545
     13 C          12.4231   41.1229    9.7475 C.3     1  UNL1        0.0069
     14 C          12.4865   41.6272    8.3110 C.3     1  UNL1        0.0004
     15 C          13.8334   41.3248    7.6657 C.3     1  UNL1        0.0000
     16 C          15.9217   42.6816    7.4724 C.3     1  UNL1        0.0000
     17 C          14.4602   42.5804    7.0801 C.3     1  UNL1        0.0000
@<TRIPOS>BOND
     1    16    17    1
     2    17    15    1
     3    15    14    1
     4    14    13    1
     5    13    12    1
     6    12     1    1
     7     1     5   ar
     8     2     7    1
     9     2     5   ar
    10     6    11    1
    11    10    11    1
    12     3     4   ar
    13     7     6   am
    14     1     3   ar
    15     2     4   ar
    16     6     8    2
    17     7     9    1
@<TRIPOS>MOLECULE
MolPort-002-958-417 4694967 CSSS00039171529 MCULE-5656315913 PubChem-3897640 ZINC000004694967 ZINC04694967
 17 17 0 0 0
SMALL
GASTEIGER

@<TRIPOS>ATOM
      1 C          10.3008   42.2393    9.1337 C.ar    1  UNL1        0.1123
      2 C           7.9581   42.7027    9.2920 C.ar    1  UNL1        0.1903
      3 N           9.5321   41.3117    8.5221 N.ar    1  UNL1       -0.1440
      4 N           8.2282   41.5702    8.6061 N.ar    1  UNL1       -0.1255
      5 S           9.3613   43.4499    9.8403 S.2     1  UNL1       -0.0346
      6 C           5.8181   43.8525    8.5543 C.2     1  UNL1        0.4070
      7 N           6.6405   43.2064    9.5312 N.am    1  UNL1       -0.2284
      8 O           6.2323   44.0203    7.3743 O.2     1  UNL1       -0.2260
      9 H           6.2711   43.1004   10.4376 H       1  UNL1        0.1602
     10 C           3.6415   44.8484    7.9848 C.3     1  UNL1        0.2574
     11 O           4.5488   44.2953    8.9262 O.3     1  UNL1       -0.4303
     12 C          11.7889   42.1485    9.2013 C.3     1  UNL1        0.0545
     13 C          12.3197   41.0481    8.2916 C.3     1  UNL1        0.0069
     14 C          13.1438   41.6187    7.1441 C.3     1  UNL1        0.0004
     15 C          14.5851   41.8836    7.5617 C.3     1  UNL1        0.0000
     16 C          14.1483   43.6613    5.8622 C.3     1  UNL1        0.0000
     17 C          15.1446   43.1150    6.8667 C.3     1  UNL1        0.0000
@<TRIPOS>BOND
     1    16    17    1
     2    17    15    1
     3    15    14    1
     4    14    13    1
     5    13    12    1
     6    12     1    1
     7     1     5   ar
     8     2     7    1
     9     2     5   ar
    10     6    11    1
    11    10    11    1
    12     3     4   ar
    13     7     6   am
    14     1     3   ar
    15     2     4   ar
    16     6     8    2
    17     7     9    1
