@<TRIPOS>MOLECULE
Molport-020-292-498 MCULE-7940027693 PubChem-110264966
 30 33 0 0 0
SMALL
GASTEIGER

@<TRIPOS>ATOM
      1 C           9.0321   41.4749   10.3204 C.3     1  UNL1        0.0521
      2 C          10.2052   41.2129    9.4469 C.ar    1  UNL1        0.0602
      3 C          10.6065   42.1696    8.5129 C.ar    1  UNL1        0.0294
      4 C          11.7135   41.9156    7.6930 C.ar    1  UNL1        0.0528
      5 C          12.3957   40.7041    7.8283 C.ar    1  UNL1        0.0294
      6 C          11.9670   39.7683    8.7733 C.ar    1  UNL1        0.0611
      7 N          10.8871   40.0420    9.5578 N.ar    1  UNL1       -0.2538
      8 C          12.7013   38.4764    8.9136 C.3     1  UNL1        0.0602
      9 C          11.8604   37.4575    9.6855 C.3     1  UNL1        0.0094
     10 C          12.6197   36.1405    9.8292 C.3     1  UNL1        0.0220
     11 C          13.9474   36.3844   10.5389 C.3     1  UNL1        0.0937
     12 C          14.0494   38.6964    9.6008 C.3     1  UNL1        0.0996
     13 C          16.0864   37.2333    9.4771 C.2     1  UNL1        0.2562
     14 N          14.7012   37.4083    9.8202 N.am    1  UNL1       -0.2753
     15 O          16.8121   38.2518    9.3159 O.2     1  UNL1       -0.2693
     16 C          16.6821   35.8902    9.2852 C.ar    1  UNL1        0.0976
     17 C          17.9391   35.4590    9.7266 C.ar    1  UNL1        0.0699
     18 C          17.3055   33.6047    8.6317 C.ar    1  UNL1        0.0884
     19 C          17.4043   32.2216    8.0974 C.3     1  UNL1        0.0594
     20 C          18.8639   36.2880   10.5498 C.3     1  UNL1        0.0528
     21 N          18.2736   34.1907    9.3663 N.ar    1  UNL1       -0.2469
     22 S          15.9981   34.6297    8.3960 S.2     1  UNL1       -0.0666
     23 N          12.1731   42.8597    6.7155 N.pl3   1  UNL1       -0.2825
     24 H          11.4931   43.2137    6.0977 H       1  UNL1        0.1551
     25 C          13.5099   43.3469    6.5354 C.ar    1  UNL1        0.2207
     26 C          15.7907   43.2640    7.1614 C.ar    1  UNL1        0.1034
     27 C          16.0969   44.2508    6.2264 C.ar    1  UNL1        0.0414
     28 C          15.0617   44.7694    5.4510 C.ar    1  UNL1        0.1034
     29 N          14.5099   42.8318    7.2987 N.ar    1  UNL1       -0.2120
     30 N          13.7937   44.3115    5.6176 N.ar    1  UNL1       -0.2120
@<TRIPOS>BOND
     1     1     2    1
     2     2     7   ar
     3     3     4   ar
     4     4    23    1
     5     5     6   ar
     6     8     6    1
     7     8     9    1
     8     9    10    1
     9    10    11    1
    10    11    14    1
    11    12    14    1
    12    12     8    1
    13    13    16    1
    14    16    22   ar
    15    17    21   ar
    16    18    22   ar
    17    19    18    1
    18    20    17    1
    19    25    30   ar
    20    26    29   ar
    21    27    28   ar
    22    14    13   am
    23    23    25    1
    24     2     3   ar
    25     4     5   ar
    26     6     7   ar
    27    13    15    2
    28    16    17   ar
    29    18    21   ar
    30    25    29   ar
    31    26    27   ar
    32    28    30   ar
    33    23    24    1
@<TRIPOS>MOLECULE
Molport-020-292-498 MCULE-7940027693 PubChem-110264966
 30 33 0 0 0
SMALL
GASTEIGER

@<TRIPOS>ATOM
      1 C          16.8365   38.0638   11.4720 C.3     1  UNL1        0.0521
      2 C          16.0829   39.0540   10.6600 C.ar    1  UNL1        0.0602
      3 C          16.7715   39.9849    9.8802 C.ar    1  UNL1        0.0294
      4 C          16.0541   40.9151    9.1172 C.ar    1  UNL1        0.0528
      5 C          14.6578   40.8912    9.1531 C.ar    1  UNL1        0.0294
      6 C          14.0003   39.9460    9.9448 C.ar    1  UNL1        0.0611
      7 N          14.7235   39.0528   10.6767 N.ar    1  UNL1       -0.2538
      8 C          12.5082   39.9252    9.9775 C.3     1  UNL1        0.0602
      9 C          11.9622   38.8363    9.0515 C.3     1  UNL1        0.0094
     10 C          10.4357   38.8242    9.0864 C.3     1  UNL1        0.0220
     11 C           9.8987   40.1918    8.6772 C.3     1  UNL1        0.0937
     12 C          11.9431   41.2936    9.5949 C.3     1  UNL1        0.0996
     13 C           9.6850   42.2306   10.1674 C.2     1  UNL1        0.2562
     14 N          10.4862   41.2197    9.5324 N.am    1  UNL1       -0.2753
     15 O          10.2161   43.3329   10.4722 O.2     1  UNL1       -0.2693
     16 C           8.2573   42.0072   10.4950 C.ar    1  UNL1        0.0976
     17 C           7.7412   41.4956   11.6920 C.ar    1  UNL1        0.0699
     18 C           5.8202   41.6954   10.5480 C.ar    1  UNL1        0.0884
     19 C           4.3590   41.6169   10.2894 C.3     1  UNL1        0.0594
     20 C           8.5715   41.1616   12.8833 C.3     1  UNL1        0.0528
     21 N           6.3910   41.3323   11.7153 N.ar    1  UNL1       -0.2469
     22 S           6.9601   42.2311    9.4393 S.2     1  UNL1       -0.0666
     23 N          16.7056   41.8952    8.2968 N.pl3   1  UNL1       -0.2825
     24 H          17.6869   41.9377    8.3644 H       1  UNL1        0.1551
     25 C          16.0908   42.8202    7.3895 C.ar    1  UNL1        0.2207
     26 C          14.2870   43.3374    5.9472 C.ar    1  UNL1        0.1034
     27 C          14.8689   44.5653    5.6383 C.ar    1  UNL1        0.0414
     28 C          16.0846   44.8890    6.2373 C.ar    1  UNL1        0.1034
     29 N          14.9047   42.4913    6.8125 N.ar    1  UNL1       -0.2120
     30 N          16.6713   44.0164    7.0974 N.ar    1  UNL1       -0.2120
@<TRIPOS>BOND
     1     1     2    1
     2     2     7   ar
     3     3     4   ar
     4     4    23    1
     5     5     6   ar
     6     8     6    1
     7     8     9    1
     8     9    10    1
     9    10    11    1
    10    11    14    1
    11    12    14    1
    12    12     8    1
    13    13    16    1
    14    16    22   ar
    15    17    21   ar
    16    18    22   ar
    17    19    18    1
    18    20    17    1
    19    25    30   ar
    20    26    29   ar
    21    27    28   ar
    22    14    13   am
    23    23    25    1
    24     2     3   ar
    25     4     5   ar
    26     6     7   ar
    27    13    15    2
    28    16    17   ar
    29    18    21   ar
    30    25    29   ar
    31    26    27   ar
    32    28    30   ar
    33    23    24    1
@<TRIPOS>MOLECULE
Molport-020-292-498 MCULE-7940027693 PubChem-110264966
 30 33 0 0 0
SMALL
GASTEIGER

@<TRIPOS>ATOM
      1 C          14.0388   37.2273   11.5473 C.3     1  UNL1        0.0521
      2 C          13.9426   38.5243   10.8288 C.ar    1  UNL1        0.0602
      3 C          15.0632   39.0475   10.1814 C.ar    1  UNL1        0.0294
      4 C          14.9646   40.2708    9.5059 C.ar    1  UNL1        0.0528
      5 C          13.7408   40.9443    9.4946 C.ar    1  UNL1        0.0294
      6 C          12.6391   40.3922   10.1533 C.ar    1  UNL1        0.0611
      7 N          12.7635   39.2006   10.8022 N.ar    1  UNL1       -0.2538
      8 C          11.3341   41.1165   10.1361 C.3     1  UNL1        0.0602
      9 C          10.5135   40.7820   11.3835 C.3     1  UNL1        0.0094
     10 C           9.1784   41.5225   11.3566 C.3     1  UNL1        0.0220
     11 C           8.4069   41.1510   10.0946 C.3     1  UNL1        0.0937
     12 C          10.5498   40.7809    8.8671 C.3     1  UNL1        0.0996
     13 C           8.7371   42.1401    7.7845 C.2     1  UNL1        0.2562
     14 N           9.2367   41.4171    8.9225 N.am    1  UNL1       -0.2753
     15 O           9.2593   41.9421    6.6541 O.2     1  UNL1       -0.2693
     16 C           7.6402   43.1289    7.9049 C.ar    1  UNL1        0.0976
     17 C           7.6168   44.2597    8.7305 C.ar    1  UNL1        0.0699
     18 C           5.5518   44.4236    7.8658 C.ar    1  UNL1        0.0884
     19 C           4.1968   44.9900    7.6389 C.3     1  UNL1        0.0594
     20 C           8.7598   44.6955    9.5812 C.3     1  UNL1        0.0528
     21 N           6.4598   44.9743    8.6980 N.ar    1  UNL1       -0.2469
     22 S           6.1403   43.0311    7.1380 S.2     1  UNL1       -0.0666
     23 N          16.0808   40.8583    8.8225 N.pl3   1  UNL1       -0.2825
     24 H          16.9270   40.3562    8.8575 H       1  UNL1        0.1551
     25 C          16.1049   42.0935    8.0942 C.ar    1  UNL1        0.2207
     26 C          15.0798   43.5260    6.5136 C.ar    1  UNL1        0.1034
     27 C          16.1062   44.4553    6.6705 C.ar    1  UNL1        0.0414
     28 C          17.1325   44.1605    7.5657 C.ar    1  UNL1        0.1034
     29 N          15.0971   42.3681    7.2242 N.ar    1  UNL1       -0.2120
     30 N          17.1145   42.9919    8.2581 N.ar    1  UNL1       -0.2120
@<TRIPOS>BOND
     1     1     2    1
     2     2     7   ar
     3     3     4   ar
     4     4    23    1
     5     5     6   ar
     6     8     6    1
     7     8     9    1
     8     9    10    1
     9    10    11    1
    10    11    14    1
    11    12    14    1
    12    12     8    1
    13    13    16    1
    14    16    22   ar
    15    17    21   ar
    16    18    22   ar
    17    19    18    1
    18    20    17    1
    19    25    30   ar
    20    26    29   ar
    21    27    28   ar
    22    14    13   am
    23    23    25    1
    24     2     3   ar
    25     4     5   ar
    26     6     7   ar
    27    13    15    2
    28    16    17   ar
    29    18    21   ar
    30    25    29   ar
    31    26    27   ar
    32    28    30   ar
    33    23    24    1
@<TRIPOS>MOLECULE
Molport-020-292-498 MCULE-7940027693 PubChem-110264966
 30 33 0 0 0
SMALL
GASTEIGER

@<TRIPOS>ATOM
      1 C          14.0042   38.6931   11.8427 C.3     1  UNL1        0.0521
      2 C          13.5731   39.6575   10.7978 C.ar    1  UNL1        0.0602
      3 C          14.4360   39.9818    9.7496 C.ar    1  UNL1        0.0294
      4 C          14.0224   40.8918    8.7682 C.ar    1  UNL1        0.0528
      5 C          12.7487   41.4582    8.8600 C.ar    1  UNL1        0.0294
      6 C          11.9104   41.1116    9.9229 C.ar    1  UNL1        0.0611
      7 N          12.3387   40.2235   10.8633 N.ar    1  UNL1       -0.2538
      8 C          10.5503   41.7195   10.0142 C.3     1  UNL1        0.0602
      9 C          10.2089   42.0656   11.4651 C.3     1  UNL1        0.0094
     10 C           8.8148   42.6824   11.5513 C.3     1  UNL1        0.0220
     11 C           7.7854   41.7148   10.9768 C.3     1  UNL1        0.0937
     12 C           9.5004   40.7791    9.4214 C.3     1  UNL1        0.0996
     13 C           7.2348   41.3862    8.5247 C.2     1  UNL1        0.2562
     14 N           8.1699   41.3483    9.6163 N.am    1  UNL1       -0.2753
     15 O           7.4268   40.6407    7.5261 O.2     1  UNL1       -0.2693
     16 C           6.0628   42.2927    8.5286 C.ar    1  UNL1        0.0976
     17 C           4.8146   42.0477    9.1142 C.ar    1  UNL1        0.0699
     18 C           4.3701   44.0398    8.1800 C.ar    1  UNL1        0.0884
     19 C           3.5727   45.2376    7.8090 C.3     1  UNL1        0.0594
     20 C           4.4923   40.8327    9.9142 C.3     1  UNL1        0.0528
     21 N           3.8856   43.0226    8.9220 N.ar    1  UNL1       -0.2469
     22 S           5.9647   43.7757    7.7297 S.2     1  UNL1       -0.0666
     23 N          14.8642   41.2638    7.6677 N.pl3   1  UNL1       -0.2825
     24 H          15.4307   40.5517    7.2919 H       1  UNL1        0.1551
     25 C          14.9749   42.5546    7.0525 C.ar    1  UNL1        0.2207
     26 C          16.2266   44.5369    6.7296 C.ar    1  UNL1        0.1034
     27 C          15.2341   45.0431    5.8927 C.ar    1  UNL1        0.0414
     28 C          14.1065   44.2591    5.6568 C.ar    1  UNL1        0.1034
     29 N          16.0804   43.3086    7.2915 N.ar    1  UNL1       -0.2120
     30 N          13.9968   43.0358    6.2370 N.ar    1  UNL1       -0.2120
@<TRIPOS>BOND
     1     1     2    1
     2     2     7   ar
     3     3     4   ar
     4     4    23    1
     5     5     6   ar
     6     8     6    1
     7     8     9    1
     8     9    10    1
     9    10    11    1
    10    11    14    1
    11    12    14    1
    12    12     8    1
    13    13    16    1
    14    16    22   ar
    15    17    21   ar
    16    18    22   ar
    17    19    18    1
    18    20    17    1
    19    25    30   ar
    20    26    29   ar
    21    27    28   ar
    22    14    13   am
    23    23    25    1
    24     2     3   ar
    25     4     5   ar
    26     6     7   ar
    27    13    15    2
    28    16    17   ar
    29    18    21   ar
    30    25    29   ar
    31    26    27   ar
    32    28    30   ar
    33    23    24    1
@<TRIPOS>MOLECULE
Molport-020-292-498 MCULE-7940027693 PubChem-110264966
 30 33 0 0 0
SMALL
GASTEIGER

@<TRIPOS>ATOM
      1 C          17.4226   37.1575   11.0691 C.3     1  UNL1        0.0521
      2 C          16.6980   38.3320   10.5185 C.ar    1  UNL1        0.0602
      3 C          17.4109   39.4534   10.0909 C.ar    1  UNL1        0.0294
      4 C          16.7207   40.5569    9.5729 C.ar    1  UNL1        0.0528
      5 C          15.3267   40.5112    9.4948 C.ar    1  UNL1        0.0294
      6 C          14.6445   39.3728    9.9320 C.ar    1  UNL1        0.0611
      7 N          15.3414   38.3139   10.4314 N.ar    1  UNL1       -0.2538
      8 C          13.1550   39.3301    9.8445 C.3     1  UNL1        0.0602
      9 C          12.6498   37.8879    9.9228 C.3     1  UNL1        0.0094
     10 C          11.1263   37.8517    9.8278 C.3     1  UNL1        0.0220
     11 C          10.6741   38.5060    8.5265 C.3     1  UNL1        0.0937
     12 C          12.6727   40.0028    8.5588 C.3     1  UNL1        0.0996
     13 C          10.4093   40.9912    8.1056 C.2     1  UNL1        0.2562
     14 N          11.2243   39.8565    8.4453 N.am    1  UNL1       -0.2753
     15 O          10.9519   42.0017    7.5818 O.2     1  UNL1       -0.2693
     16 C           8.9522   41.0172    8.3736 C.ar    1  UNL1        0.0976
     17 C           7.9323   40.6045    7.5074 C.ar    1  UNL1        0.0699
     18 C           6.6624   41.3564    9.1988 C.ar    1  UNL1        0.0884
     19 C           5.4203   41.6790    9.9480 C.3     1  UNL1        0.0594
     20 C           8.1705   39.9844    6.1736 C.3     1  UNL1        0.0528
     21 N           6.6683   40.7897    7.9744 N.ar    1  UNL1       -0.2469
     22 S           8.2180   41.6534    9.7532 S.2     1  UNL1       -0.0666
     23 N          17.3981   41.7368    9.1177 N.pl3   1  UNL1       -0.2825
     24 H          18.1668   42.0335    9.6565 H       1  UNL1        0.1551
     25 C          17.0832   42.5336    7.9676 C.ar    1  UNL1        0.2207
     26 C          15.4357   43.4946    6.5665 C.ar    1  UNL1        0.1034
     27 C          16.4268   44.0586    5.7656 C.ar    1  UNL1        0.0414
     28 C          17.7589   43.8321    6.1062 C.ar    1  UNL1        0.1034
     29 N          15.7793   42.7463    7.6472 N.ar    1  UNL1       -0.2120
     30 N          18.0626   43.0782    7.1946 N.ar    1  UNL1       -0.2120
@<TRIPOS>BOND
     1     1     2    1
     2     2     7   ar
     3     3     4   ar
     4     4    23    1
     5     5     6   ar
     6     8     6    1
     7     8     9    1
     8     9    10    1
     9    10    11    1
    10    11    14    1
    11    12    14    1
    12    12     8    1
    13    13    16    1
    14    16    22   ar
    15    17    21   ar
    16    18    22   ar
    17    19    18    1
    18    20    17    1
    19    25    30   ar
    20    26    29   ar
    21    27    28   ar
    22    14    13   am
    23    23    25    1
    24     2     3   ar
    25     4     5   ar
    26     6     7   ar
    27    13    15    2
    28    16    17   ar
    29    18    21   ar
    30    25    29   ar
    31    26    27   ar
    32    28    30   ar
    33    23    24    1
@<TRIPOS>MOLECULE
Molport-020-292-498 MCULE-7940027693 PubChem-110264966
 30 33 0 0 0
SMALL
GASTEIGER

@<TRIPOS>ATOM
      1 C          10.5683   39.3044    3.3483 C.3     1  UNL1        0.0521
      2 C          10.5619   40.0730    4.6199 C.ar    1  UNL1        0.0602
      3 C          11.7660   40.3737    5.2589 C.ar    1  UNL1        0.0294
      4 C          11.7519   41.0988    6.4574 C.ar    1  UNL1        0.0528
      5 C          10.5269   41.5075    6.9901 C.ar    1  UNL1        0.0294
      6 C           9.3402   41.1892    6.3245 C.ar    1  UNL1        0.0611
      7 N           9.3836   40.4829    5.1602 N.ar    1  UNL1       -0.2538
      8 C           8.0349   41.6302    6.8986 C.3     1  UNL1        0.0602
      9 C           7.5155   42.8715    6.1700 C.3     1  UNL1        0.0094
     10 C           6.1828   43.3196    6.7656 C.3     1  UNL1        0.0220
     11 C           6.3523   43.6058    8.2540 C.3     1  UNL1        0.0937
     12 C           8.1707   41.9003    8.3974 C.3     1  UNL1        0.0996
     13 C           6.3478   41.8953   10.1243 C.2     1  UNL1        0.2562
     14 N           6.9115   42.4290    8.9141 N.am    1  UNL1       -0.2753
     15 O           7.0847   41.2338   10.9049 O.2     1  UNL1       -0.2693
     16 C           4.9192   42.0808   10.4710 C.ar    1  UNL1        0.0976
     17 C           4.0159   42.9616    9.8635 C.ar    1  UNL1        0.0699
     18 C           2.6700   42.1370   11.4596 C.ar    1  UNL1        0.0884
     19 C           1.4260   41.9585   12.2526 C.3     1  UNL1        0.0594
     20 C           4.3458   43.8157    8.6880 C.3     1  UNL1        0.0528
     21 N           2.7715   42.9817   10.4126 N.ar    1  UNL1       -0.2469
     22 S           4.1133   41.3324   11.7508 S.2     1  UNL1       -0.0666
     23 N          12.9561   41.4378    7.1595 N.pl3   1  UNL1       -0.2825
     24 H          13.1561   40.9066    7.9640 H       1  UNL1        0.1551
     25 C          13.9019   42.4621    6.8235 C.ar    1  UNL1        0.2207
     26 C          16.0766   43.3624    7.0710 C.ar    1  UNL1        0.1034
     27 C          15.7562   44.4084    6.2079 C.ar    1  UNL1        0.0414
     28 C          14.4740   44.4458    5.6635 C.ar    1  UNL1        0.1034
     29 N          15.1492   42.4131    7.3619 N.ar    1  UNL1       -0.2120
     30 N          13.5743   43.4780    5.9786 N.ar    1  UNL1       -0.2120
@<TRIPOS>BOND
     1     1     2    1
     2     2     7   ar
     3     3     4   ar
     4     4    23    1
     5     5     6   ar
     6     8     6    1
     7     8     9    1
     8     9    10    1
     9    10    11    1
    10    11    14    1
    11    12    14    1
    12    12     8    1
    13    13    16    1
    14    16    22   ar
    15    17    21   ar
    16    18    22   ar
    17    19    18    1
    18    20    17    1
    19    25    30   ar
    20    26    29   ar
    21    27    28   ar
    22    14    13   am
    23    23    25    1
    24     2     3   ar
    25     4     5   ar
    26     6     7   ar
    27    13    15    2
    28    16    17   ar
    29    18    21   ar
    30    25    29   ar
    31    26    27   ar
    32    28    30   ar
    33    23    24    1
@<TRIPOS>MOLECULE
Molport-020-292-498 MCULE-7940027693 PubChem-110264966
 30 33 0 0 0
SMALL
GASTEIGER

@<TRIPOS>ATOM
      1 C          14.3072   38.8983   12.1070 C.3     1  UNL1        0.0521
      2 C          13.7527   39.4585   10.8475 C.ar    1  UNL1        0.0602
      3 C          14.6120   39.9775    9.8776 C.ar    1  UNL1        0.0294
      4 C          14.0817   40.5038    8.6926 C.ar    1  UNL1        0.0528
      5 C          12.6973   40.4979    8.5059 C.ar    1  UNL1        0.0294
      6 C          11.8659   39.9707    9.4976 C.ar    1  UNL1        0.0611
      7 N          12.4090   39.4651   10.6403 N.ar    1  UNL1       -0.2538
      8 C          10.3877   39.9663    9.2911 C.3     1  UNL1        0.0602
      9 C          10.0321   39.3385    7.9417 C.3     1  UNL1        0.0094
     10 C           8.5191   39.3418    7.7354 C.3     1  UNL1        0.0220
     11 C           7.9899   40.7698    7.8159 C.3     1  UNL1        0.0937
     12 C           9.8267   41.3852    9.3918 C.3     1  UNL1        0.0996
     13 C           7.4703   42.0638    9.9324 C.2     1  UNL1        0.2562
     14 N           8.3995   41.3686    9.0835 N.am    1  UNL1       -0.2753
     15 O           7.9024   42.9479   10.7207 O.2     1  UNL1       -0.2693
     16 C           6.0209   41.7561    9.9243 C.ar    1  UNL1        0.0976
     17 C           5.3189   40.9976   10.8692 C.ar    1  UNL1        0.0699
     18 C           3.6376   41.4049    9.4387 C.ar    1  UNL1        0.0884
     19 C           2.2570   41.3612    8.8909 C.3     1  UNL1        0.0594
     20 C           5.9289   40.4334   12.1060 C.3     1  UNL1        0.0528
     21 N           3.9991   40.8136   10.5962 N.ar    1  UNL1       -0.2469
     22 S           4.9336   42.1775    8.7046 S.2     1  UNL1       -0.0666
     23 N          14.9139   41.0507    7.6598 N.pl3   1  UNL1       -0.2825
     24 H          14.8590   40.6146    6.7789 H       1  UNL1        0.1551
     25 C          15.8167   42.1601    7.7641 C.ar    1  UNL1        0.2207
     26 C          16.3814   44.3702    7.1334 C.ar    1  UNL1        0.1034
     27 C          17.5225   44.3205    7.9317 C.ar    1  UNL1        0.0414
     28 C          17.7797   43.1506    8.6436 C.ar    1  UNL1        0.1034
     29 N          15.5534   43.2952    7.0640 N.ar    1  UNL1       -0.2120
     30 N          16.9277   42.0968    8.5484 N.ar    1  UNL1       -0.2120
@<TRIPOS>BOND
     1     1     2    1
     2     2     7   ar
     3     3     4   ar
     4     4    23    1
     5     5     6   ar
     6     8     6    1
     7     8     9    1
     8     9    10    1
     9    10    11    1
    10    11    14    1
    11    12    14    1
    12    12     8    1
    13    13    16    1
    14    16    22   ar
    15    17    21   ar
    16    18    22   ar
    17    19    18    1
    18    20    17    1
    19    25    30   ar
    20    26    29   ar
    21    27    28   ar
    22    14    13   am
    23    23    25    1
    24     2     3   ar
    25     4     5   ar
    26     6     7   ar
    27    13    15    2
    28    16    17   ar
    29    18    21   ar
    30    25    29   ar
    31    26    27   ar
    32    28    30   ar
    33    23    24    1
@<TRIPOS>MOLECULE
Molport-020-292-498 MCULE-7940027693 PubChem-110264966
 30 33 0 0 0
SMALL
GASTEIGER

@<TRIPOS>ATOM
      1 C          11.3122   40.8397    4.3243 C.3     1  UNL1        0.0521
      2 C          11.5040   41.2499    5.7395 C.ar    1  UNL1        0.0602
      3 C          12.7932   41.3987    6.2537 C.ar    1  UNL1        0.0294
      4 C          12.9660   41.7858    7.5888 C.ar    1  UNL1        0.0528
      5 C          11.8388   42.0158    8.3812 C.ar    1  UNL1        0.0294
      6 C          10.5626   41.8573    7.8345 C.ar    1  UNL1        0.0611
      7 N          10.4241   41.4801    6.5326 N.ar    1  UNL1       -0.2538
      8 C           9.3624   42.1061    8.6864 C.3     1  UNL1        0.0602
      9 C           9.7662   42.2798   10.1520 C.3     1  UNL1        0.0094
     10 C           8.5334   42.5290   11.0178 C.3     1  UNL1        0.0220
     11 C           7.5537   41.3698   10.8676 C.3     1  UNL1        0.0937
     12 C           8.3511   40.9692    8.5353 C.3     1  UNL1        0.0996
     13 C           5.8828   41.0469    8.9895 C.2     1  UNL1        0.2562
     14 N           7.2366   41.1823    9.4543 N.am    1  UNL1       -0.2753
     15 O           5.6622   40.4259    7.9145 O.2     1  UNL1       -0.2693
     16 C           4.7395   41.6356    9.7256 C.ar    1  UNL1        0.0976
     17 C           4.1938   42.9126    9.5457 C.ar    1  UNL1        0.0699
     18 C           2.9162   42.2323   11.2615 C.ar    1  UNL1        0.0884
     19 C           1.8624   42.3088   12.3064 C.3     1  UNL1        0.0594
     20 C           4.6452   43.8731    8.4999 C.3     1  UNL1        0.0528
     21 N           3.1809   43.2324   10.3955 N.ar    1  UNL1       -0.2469
     22 S           3.9235   40.9135   11.0140 S.2     1  UNL1       -0.0666
     23 N          14.2653   41.9551    8.1732 N.pl3   1  UNL1       -0.2825
     24 H          14.4172   41.5057    9.0359 H       1  UNL1        0.1551
     25 C          15.3679   42.7041    7.6443 C.ar    1  UNL1        0.2207
     26 C          16.1328   44.4881    6.2903 C.ar    1  UNL1        0.1034
     27 C          17.4545   44.1751    6.6015 C.ar    1  UNL1        0.0414
     28 C          17.6950   43.0991    7.4536 C.ar    1  UNL1        0.1034
     29 N          15.1186   43.7514    6.8142 N.ar    1  UNL1       -0.2120
     30 N          16.6541   42.3863    7.9574 N.ar    1  UNL1       -0.2120
@<TRIPOS>BOND
     1     1     2    1
     2     2     7   ar
     3     3     4   ar
     4     4    23    1
     5     5     6   ar
     6     8     6    1
     7     8     9    1
     8     9    10    1
     9    10    11    1
    10    11    14    1
    11    12    14    1
    12    12     8    1
    13    13    16    1
    14    16    22   ar
    15    17    21   ar
    16    18    22   ar
    17    19    18    1
    18    20    17    1
    19    25    30   ar
    20    26    29   ar
    21    27    28   ar
    22    14    13   am
    23    23    25    1
    24     2     3   ar
    25     4     5   ar
    26     6     7   ar
    27    13    15    2
    28    16    17   ar
    29    18    21   ar
    30    25    29   ar
    31    26    27   ar
    32    28    30   ar
    33    23    24    1
@<TRIPOS>MOLECULE
Molport-020-292-498 MCULE-7940027693 PubChem-110264966
 30 33 0 0 0
SMALL
GASTEIGER

@<TRIPOS>ATOM
      1 C          14.4812   43.9271    5.5544 C.3     1  UNL1        0.0521
      2 C          14.3637   42.9475    6.6655 C.ar    1  UNL1        0.0602
      3 C          15.5129   42.4665    7.2953 C.ar    1  UNL1        0.0294
      4 C          15.3941   41.5432    8.3421 C.ar    1  UNL1        0.0528
      5 C          14.1217   41.1215    8.7353 C.ar    1  UNL1        0.0294
      6 C          12.9923   41.6231    8.0830 C.ar    1  UNL1        0.0611
      7 N          13.1374   42.5204    7.0680 N.ar    1  UNL1       -0.2538
      8 C          11.6357   41.1692    8.5091 C.3     1  UNL1        0.0602
      9 C          11.3114   39.7986    7.9111 C.3     1  UNL1        0.0094
     10 C           9.9208   39.3432    8.3473 C.3     1  UNL1        0.0220
     11 C           8.8814   40.3729    7.9171 C.3     1  UNL1        0.0937
     12 C          10.5757   42.1970    8.1116 C.3     1  UNL1        0.0996
     13 C           8.3031   42.5225    9.1288 C.2     1  UNL1        0.2562
     14 N           9.2497   41.6841    8.4446 N.am    1  UNL1       -0.2753
     15 O           8.4813   43.7708    9.1353 O.2     1  UNL1       -0.2693
     16 C           7.1349   41.9608    9.8466 C.ar    1  UNL1        0.0976
     17 C           7.0810   41.5805   11.1933 C.ar    1  UNL1        0.0699
     18 C           5.0126   40.9614   10.5790 C.ar    1  UNL1        0.0884
     19 C           3.6435   40.4029   10.7264 C.3     1  UNL1        0.0594
     20 C           8.2026   41.7622   12.1571 C.3     1  UNL1        0.0528
     21 N           5.9007   41.0344   11.5920 N.ar    1  UNL1       -0.2469
     22 S           5.6496   41.5668    9.1496 S.2     1  UNL1       -0.0666
     23 N          16.5379   41.0137    9.0272 N.pl3   1  UNL1       -0.2825
     24 H          17.3806   41.5108    8.9178 H       1  UNL1        0.1551
     25 C          16.5940   39.8428    9.8535 C.ar    1  UNL1        0.2207
     26 C          17.7814   37.9176   10.5495 C.ar    1  UNL1        0.1034
     27 C          16.7488   37.5800   11.4222 C.ar    1  UNL1        0.0414
     28 C          15.6354   38.4156   11.4819 C.ar    1  UNL1        0.1034
     29 N          17.6864   39.0366    9.7849 N.ar    1  UNL1       -0.2120
     30 N          15.5772   39.5259   10.7014 N.ar    1  UNL1       -0.2120
@<TRIPOS>BOND
     1     1     2    1
     2     2     7   ar
     3     3     4   ar
     4     4    23    1
     5     5     6   ar
     6     8     6    1
     7     8     9    1
     8     9    10    1
     9    10    11    1
    10    11    14    1
    11    12    14    1
    12    12     8    1
    13    13    16    1
    14    16    22   ar
    15    17    21   ar
    16    18    22   ar
    17    19    18    1
    18    20    17    1
    19    25    30   ar
    20    26    29   ar
    21    27    28   ar
    22    14    13   am
    23    23    25    1
    24     2     3   ar
    25     4     5   ar
    26     6     7   ar
    27    13    15    2
    28    16    17   ar
    29    18    21   ar
    30    25    29   ar
    31    26    27   ar
    32    28    30   ar
    33    23    24    1
@<TRIPOS>MOLECULE
Molport-020-292-498 MCULE-7940027693 PubChem-110264966
 30 33 0 0 0
SMALL
GASTEIGER

@<TRIPOS>ATOM
      1 C          15.7260   44.0687    5.5441 C.3     1  UNL1        0.0521
      2 C          15.5140   43.1494    6.6921 C.ar    1  UNL1        0.0602
      3 C          16.6108   42.6442    7.3924 C.ar    1  UNL1        0.0294
      4 C          16.4029   41.7782    8.4737 C.ar    1  UNL1        0.0528
      5 C          15.0959   41.4370    8.8298 C.ar    1  UNL1        0.0294
      6 C          14.0209   41.9608    8.1069 C.ar    1  UNL1        0.0611
      7 N          14.2524   42.8011    7.0597 N.ar    1  UNL1       -0.2538
      8 C          12.6269   41.5932    8.4937 C.3     1  UNL1        0.0602
      9 C          12.6259   40.3741    9.4185 C.3     1  UNL1        0.0094
     10 C          11.1968   40.0011    9.8059 C.3     1  UNL1        0.0220
     11 C          10.3780   39.7196    8.5505 C.3     1  UNL1        0.0937
     12 C          11.7761   41.3295    7.2508 C.3     1  UNL1        0.0996
     13 C           9.2753   41.4443    7.0562 C.2     1  UNL1        0.2562
     14 N          10.4500   40.8715    7.6555 N.am    1  UNL1       -0.2753
     15 O           9.3855   42.0735    5.9691 O.2     1  UNL1       -0.2693
     16 C           7.9405   41.3363    7.6905 C.ar    1  UNL1        0.0976
     17 C           6.8713   40.5385    7.2647 C.ar    1  UNL1        0.0699
     18 C           5.8658   41.5689    8.9870 C.ar    1  UNL1        0.0884
     19 C           4.7757   41.9161    9.9353 C.3     1  UNL1        0.0594
     20 C           6.9435   39.5889    6.1189 C.3     1  UNL1        0.0528
     21 N           5.7290   40.6684    7.9917 N.ar    1  UNL1       -0.2469
     22 S           7.4025   42.2424    9.0084 S.2     1  UNL1       -0.0666
     23 N          17.4896   41.2273    9.2312 N.pl3   1  UNL1       -0.2825
     24 H          18.2706   41.8122    9.3619 H       1  UNL1        0.1551
     25 C          17.5681   39.9219    9.8199 C.ar    1  UNL1        0.2207
     26 C          16.6178   38.2893   11.2456 C.ar    1  UNL1        0.1034
     27 C          17.6739   37.4209   10.9769 C.ar    1  UNL1        0.0414
     28 C          18.6757   37.8488   10.1081 C.ar    1  UNL1        0.1034
     29 N          16.5836   39.5175   10.6657 N.ar    1  UNL1       -0.2120
     30 N          18.6062   39.0844    9.5478 N.ar    1  UNL1       -0.2120
@<TRIPOS>BOND
     1     1     2    1
     2     2     7   ar
     3     3     4   ar
     4     4    23    1
     5     5     6   ar
     6     8     6    1
     7     8     9    1
     8     9    10    1
     9    10    11    1
    10    11    14    1
    11    12    14    1
    12    12     8    1
    13    13    16    1
    14    16    22   ar
    15    17    21   ar
    16    18    22   ar
    17    19    18    1
    18    20    17    1
    19    25    30   ar
    20    26    29   ar
    21    27    28   ar
    22    14    13   am
    23    23    25    1
    24     2     3   ar
    25     4     5   ar
    26     6     7   ar
    27    13    15    2
    28    16    17   ar
    29    18    21   ar
    30    25    29   ar
    31    26    27   ar
    32    28    30   ar
    33    23    24    1
