@<TRIPOS>MOLECULE
MolPort-021-802-572 169969321 LN00200517 MCULE-6928555385 PubChem-53398548 ZINC000169969321
 25 26 0 0 0
SMALL
GASTEIGER

@<TRIPOS>ATOM
      1 C          11.0417   41.7841    8.6856 C.ar    1  UNL1        0.0000
      2 C          11.1856   41.9847    7.2993 C.ar    1  UNL1        0.0000
      3 C           9.0646   43.0537    7.1994 C.ar    1  UNL1        0.0000
      4 C           8.8936   42.8996    8.5763 C.ar    1  UNL1        0.0000
      5 C           9.8938   42.2674    9.3170 C.ar    1  UNL1        0.0000
      6 N          10.1978   42.6040    6.5981 N.ar    1  UNL1        0.0000
      7 F          12.3220   41.6255    6.6535 F       1  UNL1        0.0000
      8 C           5.6163   43.7018    8.3393 C.3     1  UNL1        0.0000
      9 C           4.4364   44.6414    8.5718 C.3     1  UNL1        0.0000
     10 C           5.5888   43.3361    6.8535 C.3     1  UNL1        0.0000
     11 C           5.6175   42.4442    9.3043 C.3     1  UNL1        0.0000
     12 C           4.4465   42.4324   10.2828 C.3     1  UNL1        0.0000
     13 C           5.5761   41.1043    8.5667 C.3     1  UNL1        0.0000
     14 O           6.7901   44.4251    8.5977 O.3     1  UNL1        0.0000
     15 O           6.7983   42.5002   10.0603 O.3     1  UNL1        0.0000
     16 B           7.5988   43.4291    9.2806 B       1  UNL1        0.0000
     17 C          12.9556   40.1394    9.0444 C.2     1  UNL1        0.0000
     18 O          12.7259   39.5014    7.9806 O.2     1  UNL1        0.0000
     19 N          12.0558   41.1613    9.4846 N.am    1  UNL1        0.0000
     20 H          12.1407   41.4629   10.4179 H       1  UNL1        0.0000
     21 O          14.0651   39.8253    9.8407 O.3     1  UNL1        0.0000
     22 C          15.5976   38.4992   11.1754 C.3     1  UNL1        0.0000
     23 C          14.5407   38.4993   10.0844 C.3     1  UNL1        0.0000
     24 C          15.1660   37.9673    8.8124 C.3     1  UNL1        0.0000
     25 C          13.3958   37.5814   10.4772 C.3     1  UNL1        0.0000
@<TRIPOS>BOND
     1    22    23    1
     2    23    24    1
     3    23    25    1
     4    23    21    1
     5    17    21    1
     6    17    19   am
     7     2     7    1
     8     2     6   ar
     9     3     4   ar
    10     4    16    1
    11     5     1   ar
    12     8    14    1
    13     8     9    1
    14     8    10    1
    15     8    11    1
    16    11    12    1
    17    11    13    1
    18    11    15    1
    19    19     1    1
    20    16    14    1
    21    16    15    1
    22    17    18    2
    23     1     2   ar
    24     3     6   ar
    25     4     5   ar
    26    19    20    1
@<TRIPOS>MOLECULE
MolPort-021-802-572 169969321 LN00200517 MCULE-6928555385 PubChem-53398548 ZINC000169969321
 25 26 0 0 0
SMALL
GASTEIGER

@<TRIPOS>ATOM
      1 C           9.9829   41.3445   11.6910 C.ar    1  UNL1        0.0000
      2 C           9.0364   41.2343   12.7276 C.ar    1  UNL1        0.0000
      3 C           7.4481   42.4618   11.4540 C.ar    1  UNL1        0.0000
      4 C           8.3468   42.5710   10.3913 C.ar    1  UNL1        0.0000
      5 C           9.6152   42.0014   10.5149 C.ar    1  UNL1        0.0000
      6 N           7.8060   41.7970   12.5845 N.ar    1  UNL1        0.0000
      7 F           9.3054   40.5224   13.8495 F       1  UNL1        0.0000
      8 C           6.7600   42.4814    7.4055 C.3     1  UNL1        0.0000
      9 C           6.6981   42.7342    5.9018 C.3     1  UNL1        0.0000
     10 C           6.3585   41.0193    7.6129 C.3     1  UNL1        0.0000
     11 C           5.8940   43.5052    8.2508 C.3     1  UNL1        0.0000
     12 C           5.1833   44.5480    7.3927 C.3     1  UNL1        0.0000
     13 C           4.8119   42.8377    9.1020 C.3     1  UNL1        0.0000
     14 O           8.0955   42.6371    7.8057 O.3     1  UNL1        0.0000
     15 O           6.7730   44.1894    9.1043 O.3     1  UNL1        0.0000
     16 B           7.9378   43.3209    9.0785 B       1  UNL1        0.0000
     17 C          12.0936   40.3592   10.6563 C.2     1  UNL1        0.0000
     18 O          11.5840   40.2417    9.5082 O.2     1  UNL1        0.0000
     19 N          11.2863   40.7533   11.7701 N.am    1  UNL1        0.0000
     20 H          11.6587   40.6053   12.6693 H       1  UNL1        0.0000
     21 O          13.4446   40.0564   10.8728 O.3     1  UNL1        0.0000
     22 C          12.9497   37.6832   10.7651 C.3     1  UNL1        0.0000
     23 C          14.0217   38.7581   10.7133 C.3     1  UNL1        0.0000
     24 C          14.9955   38.5179   11.8474 C.3     1  UNL1        0.0000
     25 C          14.7806   38.6650    9.4007 C.3     1  UNL1        0.0000
@<TRIPOS>BOND
     1    22    23    1
     2    23    24    1
     3    23    25    1
     4    23    21    1
     5    17    21    1
     6    17    19   am
     7     2     7    1
     8     2     6   ar
     9     3     4   ar
    10     4    16    1
    11     5     1   ar
    12     8    14    1
    13     8     9    1
    14     8    10    1
    15     8    11    1
    16    11    12    1
    17    11    13    1
    18    11    15    1
    19    19     1    1
    20    16    14    1
    21    16    15    1
    22    17    18    2
    23     1     2   ar
    24     3     6   ar
    25     4     5   ar
    26    19    20    1
@<TRIPOS>MOLECULE
MolPort-021-802-572 169969321 LN00200517 MCULE-6928555385 PubChem-53398548 ZINC000169969321
 25 26 0 0 0
SMALL
GASTEIGER

@<TRIPOS>ATOM
      1 C          14.5102   41.3956    7.9539 C.ar    1  UNL1        0.0000
      2 C          14.9708   42.5162    7.2364 C.ar    1  UNL1        0.0000
      3 C          12.9389   42.6058    6.0056 C.ar    1  UNL1        0.0000
      4 C          12.4328   41.5135    6.7124 C.ar    1  UNL1        0.0000
      5 C          13.2249   40.9156    7.6941 C.ar    1  UNL1        0.0000
      6 N          14.1809   43.0829    6.2845 N.ar    1  UNL1        0.0000
      7 F          16.1692   43.0842    7.5173 F       1  UNL1        0.0000
      8 C           9.9962   39.2807    7.4324 C.3     1  UNL1        0.0000
      9 C           8.9519   38.2447    7.0261 C.3     1  UNL1        0.0000
     10 C          10.8571   38.6230    8.5132 C.3     1  UNL1        0.0000
     11 C           9.3670   40.6665    7.8758 C.3     1  UNL1        0.0000
     12 C           7.8433   40.6921    7.7937 C.3     1  UNL1        0.0000
     13 C           9.7283   41.0755    9.3052 C.3     1  UNL1        0.0000
     14 O          10.8025   39.5300    6.3119 O.3     1  UNL1        0.0000
     15 O           9.8532   41.6456    6.9960 O.3     1  UNL1        0.0000
     16 B          10.9967   40.9671    6.4095 B       1  UNL1        0.0000
     17 C          14.7554   40.0915   10.1301 C.2     1  UNL1        0.0000
     18 O          13.5493   40.2487   10.4650 O.2     1  UNL1        0.0000
     19 N          15.2833   40.7687    8.9854 N.am    1  UNL1        0.0000
     20 H          16.2632   40.8074    8.8988 H       1  UNL1        0.0000
     21 O          15.6128   39.2943   10.9002 O.3     1  UNL1        0.0000
     22 C          14.7924   37.1625   11.7192 C.3     1  UNL1        0.0000
     23 C          15.7392   37.8762   10.7697 C.3     1  UNL1        0.0000
     24 C          17.1577   37.4816   11.1219 C.3     1  UNL1        0.0000
     25 C          15.4600   37.4410    9.3414 C.3     1  UNL1        0.0000
@<TRIPOS>BOND
     1    22    23    1
     2    23    24    1
     3    23    25    1
     4    23    21    1
     5    17    21    1
     6    17    19   am
     7     2     7    1
     8     2     6   ar
     9     3     4   ar
    10     4    16    1
    11     5     1   ar
    12     8    14    1
    13     8     9    1
    14     8    10    1
    15     8    11    1
    16    11    12    1
    17    11    13    1
    18    11    15    1
    19    19     1    1
    20    16    14    1
    21    16    15    1
    22    17    18    2
    23     1     2   ar
    24     3     6   ar
    25     4     5   ar
    26    19    20    1
@<TRIPOS>MOLECULE
MolPort-021-802-572 169969321 LN00200517 MCULE-6928555385 PubChem-53398548 ZINC000169969321
 25 26 0 0 0
SMALL
GASTEIGER

@<TRIPOS>ATOM
      1 C          12.9068   42.4131    6.6680 C.ar    1  UNL1        0.0000
      2 C          13.8810   43.3716    6.3290 C.ar    1  UNL1        0.0000
      3 C          15.4828   42.2802    7.7054 C.ar    1  UNL1        0.0000
      4 C          14.5555   41.2939    8.0462 C.ar    1  UNL1        0.0000
      5 C          13.2661   41.3634    7.5159 C.ar    1  UNL1        0.0000
      6 N          15.1314   43.2832    6.8577 N.ar    1  UNL1        0.0000
      7 F          13.6158   44.3538    5.4331 F       1  UNL1        0.0000
      8 C          13.7562   39.3540   10.6993 C.3     1  UNL1        0.0000
      9 C          14.0829   38.6941   12.0360 C.3     1  UNL1        0.0000
     10 C          12.4311   40.0936   10.8970 C.3     1  UNL1        0.0000
     11 C          13.7422   38.3370    9.4835 C.3     1  UNL1        0.0000
     12 C          14.0726   36.9038    9.8907 C.3     1  UNL1        0.0000
     13 C          12.4017   38.2777    8.7481 C.3     1  UNL1        0.0000
     14 O          14.7589   40.2997   10.4385 O.3     1  UNL1        0.0000
     15 O          14.7287   38.7562    8.5780 O.3     1  UNL1        0.0000
     16 B          14.9559   40.1253    9.0091 B       1  UNL1        0.0000
     17 C          10.8257   41.2920    5.7146 C.2     1  UNL1        0.0000
     18 O          11.3974   40.1823    5.5324 O.2     1  UNL1        0.0000
     19 N          11.5800   42.4363    6.1260 N.am    1  UNL1        0.0000
     20 H          11.1500   43.3165    6.0282 H       1  UNL1        0.0000
     21 O           9.4540   41.4383    5.4680 O.3     1  UNL1        0.0000
     22 C           7.7836   39.7601    5.9989 C.3     1  UNL1        0.0000
     23 C           8.4206   41.0825    6.3897 C.3     1  UNL1        0.0000
     24 C           7.3530   42.1556    6.3586 C.3     1  UNL1        0.0000
     25 C           8.9692   40.9914    7.8032 C.3     1  UNL1        0.0000
@<TRIPOS>BOND
     1    22    23    1
     2    23    24    1
     3    23    25    1
     4    23    21    1
     5    17    21    1
     6    17    19   am
     7     2     7    1
     8     2     6   ar
     9     3     4   ar
    10     4    16    1
    11     5     1   ar
    12     8    14    1
    13     8     9    1
    14     8    10    1
    15     8    11    1
    16    11    12    1
    17    11    13    1
    18    11    15    1
    19    19     1    1
    20    16    14    1
    21    16    15    1
    22    17    18    2
    23     1     2   ar
    24     3     6   ar
    25     4     5   ar
    26    19    20    1
@<TRIPOS>MOLECULE
MolPort-021-802-572 169969321 LN00200517 MCULE-6928555385 PubChem-53398548 ZINC000169969321
 25 26 0 0 0
SMALL
GASTEIGER

@<TRIPOS>ATOM
      1 C           8.3244   39.9516    6.9817 C.ar    1  UNL1        0.0000
      2 C           7.9131   39.4920    5.7159 C.ar    1  UNL1        0.0000
      3 C          10.1752   39.3216    5.0050 C.ar    1  UNL1        0.0000
      4 C          10.6269   39.7479    6.2553 C.ar    1  UNL1        0.0000
      5 C           9.6918   40.0557    7.2450 C.ar    1  UNL1        0.0000
      6 N           8.8426   39.1975    4.7670 N.ar    1  UNL1        0.0000
      7 F           6.6034   39.2773    5.4398 F       1  UNL1        0.0000
      8 C          13.1369   41.4649    7.7361 C.3     1  UNL1        0.0000
      9 C          14.5106   42.1294    7.7201 C.3     1  UNL1        0.0000
     10 C          12.1601   42.5090    8.2817 C.3     1  UNL1        0.0000
     11 C          13.1117   40.0934    8.5305 C.3     1  UNL1        0.0000
     12 C          14.4697   39.7046    9.1080 C.3     1  UNL1        0.0000
     13 C          12.1261   40.0798    9.7007 C.3     1  UNL1        0.0000
     14 O          12.7888   41.1817    6.4070 O.3     1  UNL1        0.0000
     15 O          12.7377   39.0920    7.6215 O.3     1  UNL1        0.0000
     16 B          12.1606   39.8782    6.5442 B       1  UNL1        0.0000
     17 C           7.2424   41.5268    8.6683 C.2     1  UNL1        0.0000
     18 O           8.1287   42.4157    8.5418 O.2     1  UNL1        0.0000
     19 N           7.3966   40.2547    8.0315 N.am    1  UNL1        0.0000
     20 H           6.8146   39.5238    8.3416 H       1  UNL1        0.0000
     21 O           6.1181   41.7483    9.4750 O.3     1  UNL1        0.0000
     22 C           4.7456   42.0201   11.4576 C.3     1  UNL1        0.0000
     23 C           6.1483   41.8470   10.9009 C.3     1  UNL1        0.0000
     24 C           6.9688   43.0596   11.2856 C.3     1  UNL1        0.0000
     25 C           6.7955   40.6156   11.5112 C.3     1  UNL1        0.0000
@<TRIPOS>BOND
     1    22    23    1
     2    23    24    1
     3    23    25    1
     4    23    21    1
     5    17    21    1
     6    17    19   am
     7     2     7    1
     8     2     6   ar
     9     3     4   ar
    10     4    16    1
    11     5     1   ar
    12     8    14    1
    13     8     9    1
    14     8    10    1
    15     8    11    1
    16    11    12    1
    17    11    13    1
    18    11    15    1
    19    19     1    1
    20    16    14    1
    21    16    15    1
    22    17    18    2
    23     1     2   ar
    24     3     6   ar
    25     4     5   ar
    26    19    20    1
@<TRIPOS>MOLECULE
MolPort-021-802-572 169969321 LN00200517 MCULE-6928555385 PubChem-53398548 ZINC000169969321
 25 26 0 0 0
SMALL
GASTEIGER

@<TRIPOS>ATOM
      1 C           7.7212   41.4127    9.0802 C.ar    1  UNL1        0.0000
      2 C           7.6950   41.6332    7.6897 C.ar    1  UNL1        0.0000
      3 C          10.0665   41.7891    7.6354 C.ar    1  UNL1        0.0000
      4 C          10.1393   41.5464    9.0083 C.ar    1  UNL1        0.0000
      5 C           8.9579   41.3514    9.7257 C.ar    1  UNL1        0.0000
      6 N           8.8593   41.8200    7.0112 N.ar    1  UNL1        0.0000
      7 F           6.5300   41.6030    6.9972 F       1  UNL1        0.0000
      8 C          12.5858   39.6680   10.3966 C.3     1  UNL1        0.0000
      9 C          13.5622   39.3420   11.5232 C.3     1  UNL1        0.0000
     10 C          11.8212   38.3754   10.1023 C.3     1  UNL1        0.0000
     11 C          13.2856   40.2979    9.1214 C.3     1  UNL1        0.0000
     12 C          14.7940   40.4659    9.2810 C.3     1  UNL1        0.0000
     13 C          13.0756   39.4857    7.8418 C.3     1  UNL1        0.0000
     14 O          11.6787   40.6199   10.8856 O.3     1  UNL1        0.0000
     15 O          12.7366   41.5755    8.9331 O.3     1  UNL1        0.0000
     16 B          11.5265   41.4926    9.7334 B       1  UNL1        0.0000
     17 C           6.3123   41.6147   11.1946 C.2     1  UNL1        0.0000
     18 O           7.2809   41.9869   11.9123 O.2     1  UNL1        0.0000
     19 N           6.5323   41.1844    9.8478 N.am    1  UNL1        0.0000
     20 H           5.8034   40.6880    9.4101 H       1  UNL1        0.0000
     21 O           5.0130   41.5658   11.7173 O.3     1  UNL1        0.0000
     22 C           2.6425   42.0622   11.8678 C.3     1  UNL1        0.0000
     23 C           3.8222   41.7764   10.9547 C.3     1  UNL1        0.0000
     24 C           3.5232   40.5193   10.1658 C.3     1  UNL1        0.0000
     25 C           4.0061   42.9246    9.9773 C.3     1  UNL1        0.0000
@<TRIPOS>BOND
     1    22    23    1
     2    23    24    1
     3    23    25    1
     4    23    21    1
     5    17    21    1
     6    17    19   am
     7     2     7    1
     8     2     6   ar
     9     3     4   ar
    10     4    16    1
    11     5     1   ar
    12     8    14    1
    13     8     9    1
    14     8    10    1
    15     8    11    1
    16    11    12    1
    17    11    13    1
    18    11    15    1
    19    19     1    1
    20    16    14    1
    21    16    15    1
    22    17    18    2
    23     1     2   ar
    24     3     6   ar
    25     4     5   ar
    26    19    20    1
@<TRIPOS>MOLECULE
MolPort-021-802-572 169969321 LN00200517 MCULE-6928555385 PubChem-53398548 ZINC000169969321
 25 26 0 0 0
SMALL
GASTEIGER

@<TRIPOS>ATOM
      1 C           9.9248   41.2995   11.4203 C.ar    1  UNL1        0.0000
      2 C           9.3252   41.2707   12.6939 C.ar    1  UNL1        0.0000
      3 C           7.1752   41.5747   11.7261 C.ar    1  UNL1        0.0000
      4 C           7.7257   41.5817   10.4432 C.ar    1  UNL1        0.0000
      5 C           9.1063   41.4360   10.2972 C.ar    1  UNL1        0.0000
      6 N           7.9774   41.4141   12.8118 N.ar    1  UNL1        0.0000
      7 F          10.0602   41.0409   13.8095 F       1  UNL1        0.0000
      8 C           7.4846   42.1086    7.1107 C.3     1  UNL1        0.0000
      9 C           6.8948   42.8192    5.8958 C.3     1  UNL1        0.0000
     10 C           9.0053   42.2093    6.9719 C.3     1  UNL1        0.0000
     11 C           6.9586   40.6236    7.2866 C.3     1  UNL1        0.0000
     12 C           5.9563   40.2066    6.2140 C.3     1  UNL1        0.0000
     13 C           8.0702   39.5724    7.2694 C.3     1  UNL1        0.0000
     14 O           7.0935   42.8258    8.2511 O.3     1  UNL1        0.0000
     15 O           6.3025   40.5578    8.5253 O.3     1  UNL1        0.0000
     16 B           6.8077   41.7497    9.1854 B       1  UNL1        0.0000
     17 C          11.9530   40.1015   10.4466 C.2     1  UNL1        0.0000
     18 O          11.2961   39.0825   10.0977 O.2     1  UNL1        0.0000
     19 N          11.3350   41.1292   11.2272 N.am    1  UNL1        0.0000
     20 H          11.9303   41.7761   11.6704 H       1  UNL1        0.0000
     21 O          13.3110   40.2219   10.1222 O.3     1  UNL1        0.0000
     22 C          15.6962   39.7753   10.1092 C.3     1  UNL1        0.0000
     23 C          14.3090   39.2450   10.4284 C.3     1  UNL1        0.0000
     24 C          14.0599   38.0156    9.5807 C.3     1  UNL1        0.0000
     25 C          14.2362   38.8427   11.8914 C.3     1  UNL1        0.0000
@<TRIPOS>BOND
     1    22    23    1
     2    23    24    1
     3    23    25    1
     4    23    21    1
     5    17    21    1
     6    17    19   am
     7     2     7    1
     8     2     6   ar
     9     3     4   ar
    10     4    16    1
    11     5     1   ar
    12     8    14    1
    13     8     9    1
    14     8    10    1
    15     8    11    1
    16    11    12    1
    17    11    13    1
    18    11    15    1
    19    19     1    1
    20    16    14    1
    21    16    15    1
    22    17    18    2
    23     1     2   ar
    24     3     6   ar
    25     4     5   ar
    26    19    20    1
@<TRIPOS>MOLECULE
MolPort-021-802-572 169969321 LN00200517 MCULE-6928555385 PubChem-53398548 ZINC000169969321
 25 26 0 0 0
SMALL
GASTEIGER

@<TRIPOS>ATOM
      1 C           7.8431   40.4529    7.3291 C.ar    1  UNL1        0.0000
      2 C           7.3094   39.3530    6.6304 C.ar    1  UNL1        0.0000
      3 C           9.2716   38.0826    7.0632 C.ar    1  UNL1        0.0000
      4 C           9.8267   39.1392    7.7873 C.ar    1  UNL1        0.0000
      5 C           9.1005   40.3237    7.9225 C.ar    1  UNL1        0.0000
      6 N           8.0353   38.2084    6.5121 N.ar    1  UNL1        0.0000
      7 F           6.0538   39.3889    6.1207 F       1  UNL1        0.0000
      8 C          12.6194   40.6523    8.9503 C.3     1  UNL1        0.0000
      9 C          14.1355   40.7986    9.0447 C.3     1  UNL1        0.0000
     10 C          12.0755   42.0353    8.5849 C.3     1  UNL1        0.0000
     11 C          11.9652   40.0357   10.2559 C.3     1  UNL1        0.0000
     12 C          12.9841   39.6981   11.3406 C.3     1  UNL1        0.0000
     13 C          10.9250   40.9471   10.9105 C.3     1  UNL1        0.0000
     14 O          12.3447   39.7726    7.8926 O.3     1  UNL1        0.0000
     15 O          11.3358   38.8388    9.8813 O.3     1  UNL1        0.0000
     16 B          11.2435   38.9978    8.4398 B       1  UNL1        0.0000
     17 C           7.0348   42.7453    6.5622 C.2     1  UNL1        0.0000
     18 O           7.8422   42.8058    5.5947 O.2     1  UNL1        0.0000
     19 N           7.1194   41.6769    7.5103 N.am    1  UNL1        0.0000
     20 H           6.6385   41.7927    8.3615 H       1  UNL1        0.0000
     21 O           6.0757   43.7484    6.7563 O.3     1  UNL1        0.0000
     22 C           6.6967   44.8971    8.8017 C.3     1  UNL1        0.0000
     23 C           5.5996   44.1808    8.0332 C.3     1  UNL1        0.0000
     24 C           5.1735   42.9651    8.8286 C.3     1  UNL1        0.0000
     25 C           4.3985   45.0975    7.8766 C.3     1  UNL1        0.0000
@<TRIPOS>BOND
     1    22    23    1
     2    23    24    1
     3    23    25    1
     4    23    21    1
     5    17    21    1
     6    17    19   am
     7     2     7    1
     8     2     6   ar
     9     3     4   ar
    10     4    16    1
    11     5     1   ar
    12     8    14    1
    13     8     9    1
    14     8    10    1
    15     8    11    1
    16    11    12    1
    17    11    13    1
    18    11    15    1
    19    19     1    1
    20    16    14    1
    21    16    15    1
    22    17    18    2
    23     1     2   ar
    24     3     6   ar
    25     4     5   ar
    26    19    20    1
@<TRIPOS>MOLECULE
MolPort-021-802-572 169969321 LN00200517 MCULE-6928555385 PubChem-53398548 ZINC000169969321
 25 26 0 0 0
SMALL
GASTEIGER

@<TRIPOS>ATOM
      1 C          12.4498   42.0093    7.0008 C.ar    1  UNL1        0.0000
      2 C          13.7027   42.4252    6.5111 C.ar    1  UNL1        0.0000
      3 C          14.8095   41.2957    8.2861 C.ar    1  UNL1        0.0000
      4 C          13.5902   40.8392    8.7899 C.ar    1  UNL1        0.0000
      5 C          12.4101   41.1958    8.1350 C.ar    1  UNL1        0.0000
      6 N          14.8397   42.0649    7.1656 N.ar    1  UNL1        0.0000
      7 F          13.8054   43.1318    5.3587 F       1  UNL1        0.0000
      8 C          13.7165   37.7347   10.1266 C.3     1  UNL1        0.0000
      9 C          13.1867   36.6391   11.0475 C.3     1  UNL1        0.0000
     10 C          13.8698   37.0975    8.7436 C.3     1  UNL1        0.0000
     11 C          15.0420   38.4192   10.6624 C.3     1  UNL1        0.0000
     12 C          15.5152   37.8557   11.9994 C.3     1  UNL1        0.0000
     13 C          16.2264   38.2997    9.7012 C.3     1  UNL1        0.0000
     14 O          12.7346   38.7337   10.0497 O.3     1  UNL1        0.0000
     15 O          14.7599   39.7803   10.8545 O.3     1  UNL1        0.0000
     16 B          13.5466   39.9390   10.0707 B       1  UNL1        0.0000
     17 C          10.1792   41.4081    6.0110 C.2     1  UNL1        0.0000
     18 O          10.4041   40.1667    6.0187 O.2     1  UNL1        0.0000
     19 N          11.2179   42.3343    6.3438 N.am    1  UNL1        0.0000
     20 H          11.0738   43.2772    6.1003 H       1  UNL1        0.0000
     21 O           8.9265   41.9050    5.6269 O.3     1  UNL1        0.0000
     22 C           6.9213   40.7127    6.2947 C.3     1  UNL1        0.0000
     23 C           7.7772   41.9545    6.4757 C.3     1  UNL1        0.0000
     24 C           6.9493   43.1652    6.1005 C.3     1  UNL1        0.0000
     25 C           8.1897   42.0871    7.9316 C.3     1  UNL1        0.0000
@<TRIPOS>BOND
     1    22    23    1
     2    23    24    1
     3    23    25    1
     4    23    21    1
     5    17    21    1
     6    17    19   am
     7     2     7    1
     8     2     6   ar
     9     3     4   ar
    10     4    16    1
    11     5     1   ar
    12     8    14    1
    13     8     9    1
    14     8    10    1
    15     8    11    1
    16    11    12    1
    17    11    13    1
    18    11    15    1
    19    19     1    1
    20    16    14    1
    21    16    15    1
    22    17    18    2
    23     1     2   ar
    24     3     6   ar
    25     4     5   ar
    26    19    20    1
@<TRIPOS>MOLECULE
MolPort-021-802-572 169969321 LN00200517 MCULE-6928555385 PubChem-53398548 ZINC000169969321
 25 26 0 0 0
SMALL
GASTEIGER

@<TRIPOS>ATOM
      1 C          10.4640   40.3571    9.9987 C.ar    1  UNL1        0.0000
      2 C          10.8803   40.9680   11.1971 C.ar    1  UNL1        0.0000
      3 C           9.7584   42.9777   10.6023 C.ar    1  UNL1        0.0000
      4 C           9.3015   42.4015    9.4157 C.ar    1  UNL1        0.0000
      5 C           9.6541   41.0829    9.1228 C.ar    1  UNL1        0.0000
      6 N          10.5239   42.2541   11.4616 N.ar    1  UNL1        0.0000
      7 F          11.5833   40.2776   12.1282 F       1  UNL1        0.0000
      8 C           6.7912   42.4152    7.1487 C.3     1  UNL1        0.0000
      9 C           6.1926   42.8047    5.8001 C.3     1  UNL1        0.0000
     10 C           6.6031   40.9023    7.2822 C.3     1  UNL1        0.0000
     11 C           6.1937   43.2404    8.3632 C.3     1  UNL1        0.0000
     12 C           5.1498   44.2696    7.9389 C.3     1  UNL1        0.0000
     13 C           5.5296   42.3681    9.4305 C.3     1  UNL1        0.0000
     14 O           8.1659   42.6896    7.0962 O.3     1  UNL1        0.0000
     15 O           7.2569   43.9380    8.9563 O.3     1  UNL1        0.0000
     16 B           8.4054   43.2218    8.4273 B       1  UNL1        0.0000
     17 C          11.9941   38.5518    9.0521 C.2     1  UNL1        0.0000
     18 O          12.7587   39.3746    8.4777 O.2     1  UNL1        0.0000
     19 N          10.7848   38.9985    9.6730 N.am    1  UNL1        0.0000
     20 H          10.1145   38.3128    9.8960 H       1  UNL1        0.0000
     21 O          12.2869   37.1813    9.0480 O.3     1  UNL1        0.0000
     22 C          13.8582   35.4450    9.6841 C.3     1  UNL1        0.0000
     23 C          12.8364   36.4649   10.1565 C.3     1  UNL1        0.0000
     24 C          11.7165   35.7292   10.8613 C.3     1  UNL1        0.0000
     25 C          13.4820   37.4192   11.1464 C.3     1  UNL1        0.0000
@<TRIPOS>BOND
     1    22    23    1
     2    23    24    1
     3    23    25    1
     4    23    21    1
     5    17    21    1
     6    17    19   am
     7     2     7    1
     8     2     6   ar
     9     3     4   ar
    10     4    16    1
    11     5     1   ar
    12     8    14    1
    13     8     9    1
    14     8    10    1
    15     8    11    1
    16    11    12    1
    17    11    13    1
    18    11    15    1
    19    19     1    1
    20    16    14    1
    21    16    15    1
    22    17    18    2
    23     1     2   ar
    24     3     6   ar
    25     4     5   ar
    26    19    20    1
