@<TRIPOS>MOLECULE
MolPort-007-596-206 ChemDiv-C200-2110 MCULE-7309398312 PubChem-6621343 ZINC000004878216
 31 34 0 0 0
SMALL
GASTEIGER

@<TRIPOS>ATOM
      1 N          13.0843   40.9509    7.5739 N.ar    1  UNL1       -0.1712
      2 N          14.9871   40.0507    8.7116 N.ar    1  UNL1       -0.2752
      3 C          13.7735   42.1030    7.2929 C.ar    1  UNL1        0.2882
      4 C          15.0639   42.2369    7.7766 C.ar    1  UNL1        0.1032
      5 C          17.3852   42.7933    8.5140 C.ar    1  UNL1        0.0371
      6 C          16.9590   41.5230    8.9115 C.ar    1  UNL1        0.0250
      7 C          15.6558   41.2214    8.4871 C.ar    1  UNL1        0.0754
      8 C          13.6914   39.9285    8.2650 C.ar    1  UNL1        0.3508
      9 O          13.2613   43.0179    6.5923 O.2     1  UNL1       -0.2646
     10 O          13.0437   38.8697    8.5005 O.2     1  UNL1       -0.2445
     11 S          16.1303   43.5204    7.6416 S.2     1  UNL1       -0.0802
     12 N          11.7670   40.7613    7.1097 N.am    1  UNL1       -0.2120
     13 C          10.5993   40.9939    7.9083 C.2     1  UNL1        0.2635
     14 O          10.7105   41.1737    9.1519 O.2     1  UNL1       -0.2684
     15 H          11.6416   40.4514    6.1837 H       1  UNL1        0.1762
     16 C           9.2657   40.9815    7.2828 C.ar    1  UNL1        0.0550
     17 C           8.6529   39.7668    6.9403 C.ar    1  UNL1        0.0046
     18 C           7.3866   39.7561    6.3480 C.ar    1  UNL1        0.0001
     19 C           6.7237   40.9598    6.0943 C.ar    1  UNL1        0.0000
     20 C           7.3267   42.1742    6.4328 C.ar    1  UNL1        0.0001
     21 C           8.5929   42.1847    7.0251 C.ar    1  UNL1        0.0046
     22 C          15.5996   38.9481    9.4644 C.3     1  UNL1        0.1367
     23 C          14.5847   37.9213    9.9076 C.ar    1  UNL1       -0.0074
     24 C          14.4881   36.6956    9.2133 C.ar    1  UNL1       -0.0246
     25 C          15.3776   36.3774    8.0583 C.3     1  UNL1        0.0307
     26 C          13.5501   35.7380    9.6071 C.ar    1  UNL1       -0.0088
     27 C          12.7106   35.9783   10.6941 C.ar    1  UNL1       -0.0225
     28 C          12.8151   37.1741   11.4036 C.ar    1  UNL1       -0.0088
     29 C          13.7469   38.1441   11.0243 C.ar    1  UNL1       -0.0246
     30 C          13.8294   39.3871   11.8420 C.3     1  UNL1        0.0307
     31 C          11.7150   34.9546   11.1049 C.3     1  UNL1        0.0310
@<TRIPOS>BOND
     1     1    12    1
     2     1     3   ar
     3    12    13   am
     4     2     8   ar
     5    13    16    1
     6    17    18   ar
     7    19    20   ar
     8    21    16   ar
     9     3     4   ar
    10     4    11   ar
    11     5    11   ar
    12     6     7   ar
    13     7     2   ar
    14    22     2    1
    15    22    23    1
    16    24    26   ar
    17    25    24    1
    18    27    28   ar
    19    29    23   ar
    20    30    29    1
    21    31    27    1
    22     8     1   ar
    23    13    14    2
    24    16    17   ar
    25    18    19   ar
    26    20    21   ar
    27     3     9    2
    28     5     6   ar
    29     7     4   ar
    30    23    24   ar
    31    26    27   ar
    32    28    29   ar
    33     8    10    2
    34    12    15    1
@<TRIPOS>MOLECULE
MolPort-007-596-206 ChemDiv-C200-2110 MCULE-7309398312 PubChem-6621343 ZINC000004878216
 31 34 0 0 0
SMALL
GASTEIGER

@<TRIPOS>ATOM
      1 N          11.8249   40.7104    6.6352 N.ar    1  UNL1       -0.1712
      2 N           9.7415   40.5422    7.7999 N.ar    1  UNL1       -0.2752
      3 C          11.2609   40.1678    5.5088 C.ar    1  UNL1        0.2882
      4 C           9.9370   39.7660    5.5596 C.ar    1  UNL1        0.1032
      5 C           7.5941   38.9290    5.3305 C.ar    1  UNL1        0.0371
      6 C           7.8753   39.4743    6.5863 C.ar    1  UNL1        0.0250
      7 C           9.1927   39.9446    6.7000 C.ar    1  UNL1        0.0754
      8 C          11.0674   40.9086    7.7659 C.ar    1  UNL1        0.3508
      9 O          11.9176   40.0523    4.4386 O.2     1  UNL1       -0.2646
     10 O          11.6026   41.4236    8.7879 O.2     1  UNL1       -0.2445
     11 S           8.9922   39.0405    4.3832 S.2     1  UNL1       -0.0802
     12 N          13.1691   41.1343    6.6420 N.am    1  UNL1       -0.2120
     13 C          13.5747   42.5011    6.4904 C.2     1  UNL1        0.2635
     14 O          12.7386   43.3704    6.1208 O.2     1  UNL1       -0.2684
     15 H          13.8700   40.4526    6.7575 H       1  UNL1        0.1762
     16 C          14.9778   42.8828    6.7262 C.ar    1  UNL1        0.0550
     17 C          15.6983   42.3190    7.7899 C.ar    1  UNL1        0.0046
     18 C          17.0303   42.6809    8.0118 C.ar    1  UNL1        0.0001
     19 C          17.6515   43.6087    7.1717 C.ar    1  UNL1        0.0000
     20 C          16.9413   44.1747    6.1096 C.ar    1  UNL1        0.0001
     21 C          15.6094   43.8127    5.8876 C.ar    1  UNL1        0.0046
     22 C           8.9654   40.7489    9.0298 C.3     1  UNL1        0.1367
     23 C           8.7062   42.2106    9.3069 C.ar    1  UNL1       -0.0074
     24 C           7.8692   42.9445    8.4383 C.ar    1  UNL1       -0.0246
     25 C           7.2160   42.3084    7.2571 C.3     1  UNL1        0.0307
     26 C           7.6246   44.2990    8.6776 C.ar    1  UNL1       -0.0088
     27 C           8.1938   44.9345    9.7804 C.ar    1  UNL1       -0.0225
     28 C           9.0006   44.2134   10.6598 C.ar    1  UNL1       -0.0088
     29 C           9.2572   42.8579   10.4366 C.ar    1  UNL1       -0.0246
     30 C          10.1022   42.1369   11.4298 C.3     1  UNL1        0.0307
     31 C           7.9292   46.3758   10.0262 C.3     1  UNL1        0.0310
@<TRIPOS>BOND
     1     1    12    1
     2     1     3   ar
     3    12    13   am
     4     2     8   ar
     5    13    16    1
     6    17    18   ar
     7    19    20   ar
     8    21    16   ar
     9     3     4   ar
    10     4    11   ar
    11     5    11   ar
    12     6     7   ar
    13     7     2   ar
    14    22     2    1
    15    22    23    1
    16    24    26   ar
    17    25    24    1
    18    27    28   ar
    19    29    23   ar
    20    30    29    1
    21    31    27    1
    22     8     1   ar
    23    13    14    2
    24    16    17   ar
    25    18    19   ar
    26    20    21   ar
    27     3     9    2
    28     5     6   ar
    29     7     4   ar
    30    23    24   ar
    31    26    27   ar
    32    28    29   ar
    33     8    10    2
    34    12    15    1
@<TRIPOS>MOLECULE
MolPort-007-596-206 ChemDiv-C200-2110 MCULE-7309398312 PubChem-6621343 ZINC000004878216
 31 34 0 0 0
SMALL
GASTEIGER

@<TRIPOS>ATOM
      1 N          12.4964   41.5545    7.2918 N.ar    1  UNL1       -0.1712
      2 N          11.0746   40.5744    8.9480 N.ar    1  UNL1       -0.2752
      3 C          11.4136   41.8230    6.4937 C.ar    1  UNL1        0.2882
      4 C          10.1613   41.4112    6.9170 C.ar    1  UNL1        0.1032
      5 C           7.7868   40.7884    7.3811 C.ar    1  UNL1        0.0371
      6 C           8.6719   40.4248    8.3997 C.ar    1  UNL1        0.0250
      7 C          10.0012   40.7844    8.1286 C.ar    1  UNL1        0.0754
      8 C          12.3258   40.9482    8.5145 C.ar    1  UNL1        0.3508
      9 O          11.5408   42.4492    5.4067 O.2     1  UNL1       -0.2646
     10 O          13.3349   40.7233    9.2406 O.2     1  UNL1       -0.2445
     11 S           8.6753   41.5505    6.1587 S.2     1  UNL1       -0.0802
     12 N          13.7949   41.9477    6.9100 N.am    1  UNL1       -0.2120
     13 C          14.2826   43.2922    7.0105 C.2     1  UNL1        0.2635
     14 O          13.4821   44.2380    7.2471 O.2     1  UNL1       -0.2684
     15 H          14.4021   41.2595    6.5537 H       1  UNL1        0.1762
     16 C          15.7124   43.5742    6.7963 C.ar    1  UNL1        0.0550
     17 C          16.2098   43.7794    5.5006 C.ar    1  UNL1        0.0046
     18 C          17.5667   44.0484    5.2987 C.ar    1  UNL1        0.0001
     19 C          18.4360   44.1146    6.3907 C.ar    1  UNL1        0.0000
     20 C          17.9488   43.9121    7.6847 C.ar    1  UNL1        0.0001
     21 C          16.5919   43.6431    7.8866 C.ar    1  UNL1        0.0046
     22 C          10.9290   39.9106   10.2503 C.3     1  UNL1        0.1367
     23 C          11.6205   38.5685   10.2918 C.ar    1  UNL1       -0.0074
     24 C          11.1023   37.4965    9.5330 C.ar    1  UNL1       -0.0246
     25 C           9.8939   37.6579    8.6726 C.3     1  UNL1        0.0307
     26 C          11.7269   36.2472    9.5657 C.ar    1  UNL1       -0.0088
     27 C          12.8718   36.0509   10.3369 C.ar    1  UNL1       -0.0225
     28 C          13.4077   37.1094   11.0695 C.ar    1  UNL1       -0.0088
     29 C          12.7966   38.3661   11.0497 C.ar    1  UNL1       -0.0246
     30 C          13.4359   39.4630   11.8298 C.3     1  UNL1        0.0307
     31 C          13.5286   34.7184   10.3668 C.3     1  UNL1        0.0310
@<TRIPOS>BOND
     1     1    12    1
     2     1     3   ar
     3    12    13   am
     4     2     8   ar
     5    13    16    1
     6    17    18   ar
     7    19    20   ar
     8    21    16   ar
     9     3     4   ar
    10     4    11   ar
    11     5    11   ar
    12     6     7   ar
    13     7     2   ar
    14    22     2    1
    15    22    23    1
    16    24    26   ar
    17    25    24    1
    18    27    28   ar
    19    29    23   ar
    20    30    29    1
    21    31    27    1
    22     8     1   ar
    23    13    14    2
    24    16    17   ar
    25    18    19   ar
    26    20    21   ar
    27     3     9    2
    28     5     6   ar
    29     7     4   ar
    30    23    24   ar
    31    26    27   ar
    32    28    29   ar
    33     8    10    2
    34    12    15    1
@<TRIPOS>MOLECULE
MolPort-007-596-206 ChemDiv-C200-2110 MCULE-7309398312 PubChem-6621343 ZINC000004878216
 31 34 0 0 0
SMALL
GASTEIGER

@<TRIPOS>ATOM
      1 N          12.5305   41.3639    8.2354 N.ar    1  UNL1       -0.1712
      2 N          14.3469   40.4260    9.4790 N.ar    1  UNL1       -0.2752
      3 C          13.4020   42.1298    7.5037 C.ar    1  UNL1        0.2882
      4 C          14.7512   42.0709    7.8087 C.ar    1  UNL1        0.1032
      5 C          17.2265   42.2062    8.1189 C.ar    1  UNL1        0.0371
      6 C          16.6009   41.3026    8.9824 C.ar    1  UNL1        0.0250
      7 C          15.2119   41.2330    8.7946 C.ar    1  UNL1        0.0754
      8 C          13.0011   40.5092    9.2047 C.ar    1  UNL1        0.3508
      9 O          12.9973   42.8590    6.5579 O.2     1  UNL1       -0.2646
     10 O          12.1827   39.8015    9.8570 O.2     1  UNL1       -0.2445
     11 S          16.0382   42.9046    7.1368 S.2     1  UNL1       -0.0802
     12 N          11.1462   41.3860    7.9709 N.am    1  UNL1       -0.2120
     13 C          10.4734   40.4111    7.1632 C.2     1  UNL1        0.2635
     14 O          11.1413   39.6003    6.4649 O.2     1  UNL1       -0.2684
     15 H          10.6105   42.1128    8.3634 H       1  UNL1        0.1762
     16 C           9.0013   40.3836    7.1166 C.ar    1  UNL1        0.0550
     17 C           8.3351   39.5899    6.1709 C.ar    1  UNL1        0.0046
     18 C           6.9380   39.5634    6.1286 C.ar    1  UNL1        0.0001
     19 C           6.1970   40.3301    7.0318 C.ar    1  UNL1        0.0000
     20 C           6.8525   41.1231    7.9773 C.ar    1  UNL1        0.0001
     21 C           8.2496   41.1495    8.0196 C.ar    1  UNL1        0.0046
     22 C          14.8150   39.5179   10.5344 C.3     1  UNL1        0.1367
     23 C          15.6655   38.3946    9.9906 C.ar    1  UNL1       -0.0074
     24 C          17.0209   38.3011   10.3750 C.ar    1  UNL1       -0.0246
     25 C          17.6355   39.2763   11.3224 C.3     1  UNL1        0.0307
     26 C          17.8224   37.2714    9.8758 C.ar    1  UNL1       -0.0088
     27 C          17.2897   36.3220    9.0046 C.ar    1  UNL1       -0.0225
     28 C          15.9458   36.3890    8.6390 C.ar    1  UNL1       -0.0088
     29 C          15.1286   37.4120    9.1276 C.ar    1  UNL1       -0.0246
     30 C          13.6944   37.4100    8.7232 C.3     1  UNL1        0.0307
     31 C          18.1501   35.2312    8.4775 C.3     1  UNL1        0.0310
@<TRIPOS>BOND
     1     1    12    1
     2     1     3   ar
     3    12    13   am
     4     2     8   ar
     5    13    16    1
     6    17    18   ar
     7    19    20   ar
     8    21    16   ar
     9     3     4   ar
    10     4    11   ar
    11     5    11   ar
    12     6     7   ar
    13     7     2   ar
    14    22     2    1
    15    22    23    1
    16    24    26   ar
    17    25    24    1
    18    27    28   ar
    19    29    23   ar
    20    30    29    1
    21    31    27    1
    22     8     1   ar
    23    13    14    2
    24    16    17   ar
    25    18    19   ar
    26    20    21   ar
    27     3     9    2
    28     5     6   ar
    29     7     4   ar
    30    23    24   ar
    31    26    27   ar
    32    28    29   ar
    33     8    10    2
    34    12    15    1
@<TRIPOS>MOLECULE
MolPort-007-596-206 ChemDiv-C200-2110 MCULE-7309398312 PubChem-6621343 ZINC000004878216
 31 34 0 0 0
SMALL
GASTEIGER

@<TRIPOS>ATOM
      1 N          12.6599   40.8635    7.9853 N.ar    1  UNL1       -0.1712
      2 N          12.0557   39.0037    9.3641 N.ar    1  UNL1       -0.2752
      3 C          11.5549   40.6631    7.1977 C.ar    1  UNL1        0.2882
      4 C          10.7294   39.5874    7.4774 C.ar    1  UNL1        0.1032
      5 C           9.0625   37.7402    7.7040 C.ar    1  UNL1        0.0371
      6 C          10.0614   37.7182    8.6813 C.ar    1  UNL1        0.0250
      7 C          10.9881   38.7633    8.5453 C.ar    1  UNL1        0.0754
      8 C          12.8996   40.0491    9.0673 C.ar    1  UNL1        0.3508
      9 O          11.2754   41.4469    6.2504 O.2     1  UNL1       -0.2646
     10 O          13.9151   40.2602    9.7887 O.2     1  UNL1       -0.2445
     11 S           9.3515   39.0608    6.6856 S.2     1  UNL1       -0.0802
     12 N          13.5368   41.9406    7.7453 N.am    1  UNL1       -0.2120
     13 C          14.9634   41.8095    7.6887 C.2     1  UNL1        0.2635
     14 O          15.5151   40.7425    8.0738 O.2     1  UNL1       -0.2684
     15 H          13.1473   42.8344    7.6086 H       1  UNL1        0.1762
     16 C          15.7878   42.9366    7.2197 C.ar    1  UNL1        0.0550
     17 C          15.2254   43.9447    6.4223 C.ar    1  UNL1        0.0046
     18 C          16.0084   45.0147    5.9790 C.ar    1  UNL1        0.0001
     19 C          17.3592   45.0846    6.3301 C.ar    1  UNL1        0.0000
     20 C          17.9272   44.0850    7.1244 C.ar    1  UNL1        0.0001
     21 C          17.1441   43.0151    7.5678 C.ar    1  UNL1        0.0046
     22 C          12.3511   38.1401   10.5150 C.3     1  UNL1        0.1367
     23 C          12.8867   36.7908   10.0986 C.ar    1  UNL1       -0.0074
     24 C          14.1119   36.7150    9.4010 C.ar    1  UNL1       -0.0246
     25 C          14.9056   37.9363    9.0769 C.3     1  UNL1        0.0307
     26 C          14.6177   35.4748    9.0035 C.ar    1  UNL1       -0.0088
     27 C          13.9247   34.3022    9.3015 C.ar    1  UNL1       -0.0225
     28 C          12.7272   34.3628   10.0131 C.ar    1  UNL1       -0.0088
     29 C          12.2053   35.5942   10.4187 C.ar    1  UNL1       -0.0246
     30 C          10.9377   35.5887   11.2020 C.3     1  UNL1        0.0307
     31 C          14.4695   32.9877    8.8735 C.3     1  UNL1        0.0310
@<TRIPOS>BOND
     1     1    12    1
     2     1     3   ar
     3    12    13   am
     4     2     8   ar
     5    13    16    1
     6    17    18   ar
     7    19    20   ar
     8    21    16   ar
     9     3     4   ar
    10     4    11   ar
    11     5    11   ar
    12     6     7   ar
    13     7     2   ar
    14    22     2    1
    15    22    23    1
    16    24    26   ar
    17    25    24    1
    18    27    28   ar
    19    29    23   ar
    20    30    29    1
    21    31    27    1
    22     8     1   ar
    23    13    14    2
    24    16    17   ar
    25    18    19   ar
    26    20    21   ar
    27     3     9    2
    28     5     6   ar
    29     7     4   ar
    30    23    24   ar
    31    26    27   ar
    32    28    29   ar
    33     8    10    2
    34    12    15    1
@<TRIPOS>MOLECULE
MolPort-007-596-206 ChemDiv-C200-2110 MCULE-7309398312 PubChem-6621343 ZINC000004878216
 31 34 0 0 0
SMALL
GASTEIGER

@<TRIPOS>ATOM
      1 N          11.9738   40.7520    6.6317 N.ar    1  UNL1       -0.1712
      2 N          10.9299   39.0278    7.9212 N.ar    1  UNL1       -0.2752
      3 C          10.7708   41.0790    6.0598 C.ar    1  UNL1        0.2882
      4 C           9.6545   40.3308    6.3932 C.ar    1  UNL1        0.1032
      5 C           7.4721   39.1736    6.7666 C.ar    1  UNL1        0.0371
      6 C           8.5229   38.6481    7.5235 C.ar    1  UNL1        0.0250
      7 C           9.7416   39.3099    7.3078 C.ar    1  UNL1        0.0754
      8 C          12.0492   39.7443    7.5647 C.ar    1  UNL1        0.3508
      9 O          10.6674   42.0510    5.2632 O.2     1  UNL1       -0.2646
     10 O          13.1645   39.4689    8.0904 O.2     1  UNL1       -0.2445
     11 S           8.0792   40.4531    5.8399 S.2     1  UNL1       -0.0802
     12 N          13.1435   41.4771    6.3271 N.am    1  UNL1       -0.2120
     13 C          13.6525   42.5454    7.1366 C.2     1  UNL1        0.2635
     14 O          12.9421   43.0331    8.0579 O.2     1  UNL1       -0.2684
     15 H          13.6395   41.2362    5.5116 H       1  UNL1        0.1762
     16 C          14.9894   43.1014    6.8654 C.ar    1  UNL1        0.0550
     17 C          16.0947   42.6987    7.6298 C.ar    1  UNL1        0.0046
     18 C          17.3633   43.2260    7.3706 C.ar    1  UNL1        0.0001
     19 C          17.5358   44.1593    6.3450 C.ar    1  UNL1        0.0000
     20 C          16.4403   44.5655    5.5785 C.ar    1  UNL1        0.0001
     21 C          15.1718   44.0381    5.8377 C.ar    1  UNL1        0.0046
     22 C          11.0482   37.9443    8.9059 C.3     1  UNL1        0.1367
     23 C          12.2121   38.1472    9.8467 C.ar    1  UNL1       -0.0074
     24 C          12.2305   39.2753   10.6955 C.ar    1  UNL1       -0.0246
     25 C          11.1176   40.2693   10.7017 C.3     1  UNL1        0.0307
     26 C          13.3031   39.4804   11.5670 C.ar    1  UNL1       -0.0088
     27 C          14.3572   38.5691   11.6149 C.ar    1  UNL1       -0.0225
     28 C          14.3370   37.4376   10.8003 C.ar    1  UNL1       -0.0088
     29 C          13.2729   37.2157    9.9218 C.ar    1  UNL1       -0.0246
     30 C          13.2962   35.9726    9.1006 C.3     1  UNL1        0.0307
     31 C          15.4945   38.7961   12.5439 C.3     1  UNL1        0.0310
@<TRIPOS>BOND
     1     1    12    1
     2     1     3   ar
     3    12    13   am
     4     2     8   ar
     5    13    16    1
     6    17    18   ar
     7    19    20   ar
     8    21    16   ar
     9     3     4   ar
    10     4    11   ar
    11     5    11   ar
    12     6     7   ar
    13     7     2   ar
    14    22     2    1
    15    22    23    1
    16    24    26   ar
    17    25    24    1
    18    27    28   ar
    19    29    23   ar
    20    30    29    1
    21    31    27    1
    22     8     1   ar
    23    13    14    2
    24    16    17   ar
    25    18    19   ar
    26    20    21   ar
    27     3     9    2
    28     5     6   ar
    29     7     4   ar
    30    23    24   ar
    31    26    27   ar
    32    28    29   ar
    33     8    10    2
    34    12    15    1
@<TRIPOS>MOLECULE
MolPort-007-596-206 ChemDiv-C200-2110 MCULE-7309398312 PubChem-6621343 ZINC000004878216
 31 34 0 0 0
SMALL
GASTEIGER

@<TRIPOS>ATOM
      1 N           9.7795   41.9814    9.1653 N.ar    1  UNL1       -0.1712
      2 N          11.8482   40.9488    8.5493 N.ar    1  UNL1       -0.2752
      3 C           9.9832   41.6490   10.4804 C.ar    1  UNL1        0.2882
      4 C          11.1095   40.9147   10.8104 C.ar    1  UNL1        0.1032
      5 C          13.0189   39.5888   11.7260 C.ar    1  UNL1        0.0371
      6 C          13.1000   39.8126   10.3488 C.ar    1  UNL1        0.0250
      7 C          12.0242   40.5622    9.8483 C.ar    1  UNL1        0.0754
      8 C          10.7113   41.6462    8.2109 C.ar    1  UNL1        0.3508
      9 O           9.1804   42.0169   11.3805 O.2     1  UNL1       -0.2646
     10 O          10.5115   41.9749    7.0075 O.2     1  UNL1       -0.2445
     11 S          11.6071   40.3272   12.2970 S.2     1  UNL1       -0.0802
     12 N           8.6490   42.7253    8.7712 N.am    1  UNL1       -0.2120
     13 C           7.3545   42.1505    8.5486 C.2     1  UNL1        0.2635
     14 O           7.2227   40.8976    8.4851 O.2     1  UNL1       -0.2684
     15 H           8.7543   43.6955    8.6413 H       1  UNL1        0.1762
     16 C           6.1852   43.0245    8.3524 C.ar    1  UNL1        0.0550
     17 C           6.2360   44.0838    7.4339 C.ar    1  UNL1        0.0046
     18 C           5.1251   44.9118    7.2475 C.ar    1  UNL1        0.0001
     19 C           3.9553   44.6865    7.9779 C.ar    1  UNL1        0.0000
     20 C           3.8960   43.6333    8.8945 C.ar    1  UNL1        0.0001
     21 C           5.0069   42.8053    9.0808 C.ar    1  UNL1        0.0046
     22 C          12.8139   40.5886    7.5028 C.3     1  UNL1        0.1367
     23 C          14.0072   41.5138    7.4788 C.ar    1  UNL1       -0.0074
     24 C          13.9660   42.6800    6.6839 C.ar    1  UNL1       -0.0246
     25 C          12.7630   43.0350    5.8757 C.3     1  UNL1        0.0307
     26 C          15.0643   43.5428    6.6461 C.ar    1  UNL1       -0.0088
     27 C          16.2041   43.2671    7.4004 C.ar    1  UNL1       -0.0225
     28 C          16.2459   42.1323    8.2095 C.ar    1  UNL1       -0.0088
     29 C          15.1573   41.2573    8.2599 C.ar    1  UNL1       -0.0246
     30 C          15.2530   40.0791    9.1672 C.3     1  UNL1        0.0307
     31 C          17.3679   44.1897    7.3530 C.3     1  UNL1        0.0310
@<TRIPOS>BOND
     1     1    12    1
     2     1     3   ar
     3    12    13   am
     4     2     8   ar
     5    13    16    1
     6    17    18   ar
     7    19    20   ar
     8    21    16   ar
     9     3     4   ar
    10     4    11   ar
    11     5    11   ar
    12     6     7   ar
    13     7     2   ar
    14    22     2    1
    15    22    23    1
    16    24    26   ar
    17    25    24    1
    18    27    28   ar
    19    29    23   ar
    20    30    29    1
    21    31    27    1
    22     8     1   ar
    23    13    14    2
    24    16    17   ar
    25    18    19   ar
    26    20    21   ar
    27     3     9    2
    28     5     6   ar
    29     7     4   ar
    30    23    24   ar
    31    26    27   ar
    32    28    29   ar
    33     8    10    2
    34    12    15    1
@<TRIPOS>MOLECULE
MolPort-007-596-206 ChemDiv-C200-2110 MCULE-7309398312 PubChem-6621343 ZINC000004878216
 31 34 0 0 0
SMALL
GASTEIGER

@<TRIPOS>ATOM
      1 N          11.4133   38.9632    8.9883 N.ar    1  UNL1       -0.1712
      2 N          13.5204   37.8953    8.6073 N.ar    1  UNL1       -0.2752
      3 C          11.0207   37.9378    9.8104 C.ar    1  UNL1        0.2882
      4 C          11.8763   36.8630    9.9824 C.ar    1  UNL1        0.1032
      5 C          13.1709   34.7858   10.4836 C.ar    1  UNL1        0.0371
      6 C          13.8445   35.6788    9.6457 C.ar    1  UNL1        0.0250
      7 C          13.1085   36.8429    9.3760 C.ar    1  UNL1        0.0754
      8 C          12.6581   38.9480    8.4035 C.ar    1  UNL1        0.3508
      9 O           9.9165   37.9724   10.4182 O.2     1  UNL1       -0.2646
     10 O          13.0059   39.9096    7.6616 O.2     1  UNL1       -0.2445
     11 S          11.6685   35.4608   10.8731 S.2     1  UNL1       -0.0802
     12 N          10.5819   40.0810    8.7741 N.am    1  UNL1       -0.2120
     13 C           9.4405   40.0709    7.9066 C.2     1  UNL1        0.2635
     14 O           9.2563   39.1046    7.1169 O.2     1  UNL1       -0.2684
     15 H          10.7974   40.9169    9.2475 H       1  UNL1        0.1762
     16 C           8.5052   41.2089    7.9079 C.ar    1  UNL1        0.0550
     17 C           7.7013   41.4665    9.0286 C.ar    1  UNL1        0.0046
     18 C           6.8151   42.5477    9.0294 C.ar    1  UNL1        0.0001
     19 C           6.7264   43.3793    7.9099 C.ar    1  UNL1        0.0000
     20 C           7.5238   43.1302    6.7897 C.ar    1  UNL1        0.0001
     21 C           8.4101   42.0490    6.7890 C.ar    1  UNL1        0.0046
     22 C          14.8350   37.9001    7.9520 C.3     1  UNL1        0.1367
     23 C          15.9456   37.4870    8.8885 C.ar    1  UNL1       -0.0074
     24 C          16.2070   38.2611   10.0400 C.ar    1  UNL1       -0.0246
     25 C          15.4009   39.4730   10.3688 C.3     1  UNL1        0.0307
     26 C          17.2349   37.8957   10.9127 C.ar    1  UNL1       -0.0088
     27 C          18.0028   36.7593   10.6617 C.ar    1  UNL1       -0.0225
     28 C          17.7365   35.9725    9.5418 C.ar    1  UNL1       -0.0088
     29 C          16.7127   36.3223    8.6570 C.ar    1  UNL1       -0.0246
     30 C          16.4590   35.4234    7.4961 C.3     1  UNL1        0.0307
     31 C          19.0950   36.3791   11.5946 C.3     1  UNL1        0.0310
@<TRIPOS>BOND
     1     1    12    1
     2     1     3   ar
     3    12    13   am
     4     2     8   ar
     5    13    16    1
     6    17    18   ar
     7    19    20   ar
     8    21    16   ar
     9     3     4   ar
    10     4    11   ar
    11     5    11   ar
    12     6     7   ar
    13     7     2   ar
    14    22     2    1
    15    22    23    1
    16    24    26   ar
    17    25    24    1
    18    27    28   ar
    19    29    23   ar
    20    30    29    1
    21    31    27    1
    22     8     1   ar
    23    13    14    2
    24    16    17   ar
    25    18    19   ar
    26    20    21   ar
    27     3     9    2
    28     5     6   ar
    29     7     4   ar
    30    23    24   ar
    31    26    27   ar
    32    28    29   ar
    33     8    10    2
    34    12    15    1
@<TRIPOS>MOLECULE
MolPort-007-596-206 ChemDiv-C200-2110 MCULE-7309398312 PubChem-6621343 ZINC000004878216
 31 34 0 0 0
SMALL
GASTEIGER

@<TRIPOS>ATOM
      1 N          11.4774   41.3917    7.8849 N.ar    1  UNL1       -0.1712
      2 N           9.2859   42.2841    8.2401 N.ar    1  UNL1       -0.2752
      3 C          10.9635   40.3905    7.1009 C.ar    1  UNL1        0.2882
      4 C           9.5907   40.3180    6.9358 C.ar    1  UNL1        0.1032
      5 C           7.1741   39.9022    6.4573 C.ar    1  UNL1        0.0371
      6 C           7.4033   41.0278    7.2534 C.ar    1  UNL1        0.0250
      7 C           8.7645   41.2525    7.5107 C.ar    1  UNL1        0.0754
      8 C          10.6465   42.3381    8.4377 C.ar    1  UNL1        0.3508
      9 O          11.7161   39.5616    6.5209 O.2     1  UNL1       -0.2646
     10 O          11.1419   43.2606    9.1445 O.2     1  UNL1       -0.2445
     11 S           8.6714   39.2046    6.0885 S.2     1  UNL1       -0.0802
     12 N          12.8667   41.5123    8.0904 N.am    1  UNL1       -0.2120
     13 C          13.7529   42.1739    7.1780 C.2     1  UNL1        0.2635
     14 O          13.3501   42.4928    6.0260 O.2     1  UNL1       -0.2684
     15 H          13.2506   41.1196    8.9075 H       1  UNL1        0.1762
     16 C          15.1466   42.4440    7.5714 C.ar    1  UNL1        0.0550
     17 C          15.8220   43.5660    7.0683 C.ar    1  UNL1        0.0046
     18 C          17.1442   43.8222    7.4434 C.ar    1  UNL1        0.0001
     19 C          17.8003   42.9585    8.3245 C.ar    1  UNL1        0.0000
     20 C          17.1347   41.8390    8.8307 C.ar    1  UNL1        0.0001
     21 C          15.8125   41.5829    8.4556 C.ar    1  UNL1        0.0046
     22 C           8.4242   43.2987    8.8611 C.3     1  UNL1        0.1367
     23 C           7.2571   42.6876    9.5995 C.ar    1  UNL1       -0.0074
     24 C           5.9426   42.9351    9.1473 C.ar    1  UNL1       -0.0246
     25 C           5.6735   43.7741    7.9431 C.3     1  UNL1        0.0307
     26 C           4.8521   42.3821    9.8233 C.ar    1  UNL1       -0.0088
     27 C           5.0516   41.5730   10.9412 C.ar    1  UNL1       -0.0225
     28 C           6.3464   41.3001   11.3810 C.ar    1  UNL1       -0.0088
     29 C           7.4496   41.8447   10.7181 C.ar    1  UNL1       -0.0246
     30 C           8.8073   41.4901   11.2194 C.3     1  UNL1        0.0307
     31 C           3.8858   40.9903   11.6547 C.3     1  UNL1        0.0310
@<TRIPOS>BOND
     1     1    12    1
     2     1     3   ar
     3    12    13   am
     4     2     8   ar
     5    13    16    1
     6    17    18   ar
     7    19    20   ar
     8    21    16   ar
     9     3     4   ar
    10     4    11   ar
    11     5    11   ar
    12     6     7   ar
    13     7     2   ar
    14    22     2    1
    15    22    23    1
    16    24    26   ar
    17    25    24    1
    18    27    28   ar
    19    29    23   ar
    20    30    29    1
    21    31    27    1
    22     8     1   ar
    23    13    14    2
    24    16    17   ar
    25    18    19   ar
    26    20    21   ar
    27     3     9    2
    28     5     6   ar
    29     7     4   ar
    30    23    24   ar
    31    26    27   ar
    32    28    29   ar
    33     8    10    2
    34    12    15    1
@<TRIPOS>MOLECULE
MolPort-007-596-206 ChemDiv-C200-2110 MCULE-7309398312 PubChem-6621343 ZINC000004878216
 31 34 0 0 0
SMALL
GASTEIGER

@<TRIPOS>ATOM
      1 N          11.4711   41.3774    7.8798 N.ar    1  UNL1       -0.1712
      2 N           9.2886   42.2740    8.2772 N.ar    1  UNL1       -0.2752
      3 C          10.9448   40.4053    7.0678 C.ar    1  UNL1        0.2882
      4 C           9.5706   40.3481    6.9094 C.ar    1  UNL1        0.1032
      5 C           7.1480   39.9653    6.4335 C.ar    1  UNL1        0.0371
      6 C           7.3905   41.0634    7.2633 C.ar    1  UNL1        0.0250
      7 C           8.7549   41.2699    7.5188 C.ar    1  UNL1        0.0754
      8 C          10.6508   42.3118    8.4676 C.ar    1  UNL1        0.3508
      9 O          11.6876   39.5897    6.4570 O.2     1  UNL1       -0.2646
     10 O          11.1574   43.2078    9.2001 O.2     1  UNL1       -0.2445
     11 S           8.6377   39.2689    6.0331 S.2     1  UNL1       -0.0802
     12 N          12.8625   41.4812    8.0801 N.am    1  UNL1       -0.2120
     13 C          13.7493   42.1565    7.1784 C.2     1  UNL1        0.2635
     14 O          13.3428   42.5058    6.0364 O.2     1  UNL1       -0.2684
     15 H          13.2475   41.0662    8.8855 H       1  UNL1        0.1762
     16 C          15.1474   42.4054    7.5699 C.ar    1  UNL1        0.0550
     17 C          15.8470   43.5031    7.0467 C.ar    1  UNL1        0.0046
     18 C          17.1734   43.7392    7.4201 C.ar    1  UNL1        0.0001
     19 C          17.8096   42.8796    8.3196 C.ar    1  UNL1        0.0000
     20 C          17.1199   41.7842    8.8459 C.ar    1  UNL1        0.0001
     21 C          15.7935   41.5482    8.4725 C.ar    1  UNL1        0.0046
     22 C           8.4383   43.2746    8.9355 C.3     1  UNL1        0.1367
     23 C           7.2515   42.6519    9.6316 C.ar    1  UNL1       -0.0074
     24 C           7.4613   41.8269   10.7581 C.ar    1  UNL1       -0.0246
     25 C           8.8293   41.5655   11.2937 C.3     1  UNL1        0.0307
     26 C           6.3742   41.2386   11.4093 C.ar    1  UNL1       -0.0088
     27 C           5.0743   41.4694   10.9611 C.ar    1  UNL1       -0.0225
     28 C           4.8532   42.3036    9.8659 C.ar    1  UNL1       -0.0088
     29 C           5.9280   42.9006    9.2013 C.ar    1  UNL1       -0.0246
     30 C           5.6229   43.8053    8.0573 C.3     1  UNL1        0.0307
     31 C           3.9243   40.8383   11.6590 C.3     1  UNL1        0.0310
@<TRIPOS>BOND
     1     1    12    1
     2     1     3   ar
     3    12    13   am
     4     2     8   ar
     5    13    16    1
     6    17    18   ar
     7    19    20   ar
     8    21    16   ar
     9     3     4   ar
    10     4    11   ar
    11     5    11   ar
    12     6     7   ar
    13     7     2   ar
    14    22     2    1
    15    22    23    1
    16    24    26   ar
    17    25    24    1
    18    27    28   ar
    19    29    23   ar
    20    30    29    1
    21    31    27    1
    22     8     1   ar
    23    13    14    2
    24    16    17   ar
    25    18    19   ar
    26    20    21   ar
    27     3     9    2
    28     5     6   ar
    29     7     4   ar
    30    23    24   ar
    31    26    27   ar
    32    28    29   ar
    33     8    10    2
    34    12    15    1
