@<TRIPOS>MOLECULE
MolPort-046-956-887 MCULE-2700857628 PubChem-110095889
 26 28 0 0 0
SMALL
GASTEIGER

@<TRIPOS>ATOM
      1 C          12.5832   39.6117    8.3198 C.ar    1  UNL1        0.0805
      2 C          11.2465   39.1976    8.2657 C.ar    1  UNL1        0.1137
      3 C          10.7901   40.8754    6.6607 C.ar    1  UNL1        0.1332
      4 C          12.1254   41.2957    6.7091 C.ar    1  UNL1        0.1522
      5 N          10.3815   39.8386    7.4378 N.ar    1  UNL1       -0.2382
      6 N          12.9863   40.6498    7.5400 N.ar    1  UNL1       -0.2317
      7 C          14.0238   38.0781   11.5269 C.3     1  UNL1        0.0178
      8 C          12.9735   38.6803   10.5990 C.3     1  UNL1        0.0088
      9 C          13.5729   38.9382    9.2161 C.3     1  UNL1        0.0579
     10 C          14.8509   39.7694    9.3453 C.3     1  UNL1        0.0785
     11 C          15.2648   38.9676   11.5397 C.3     1  UNL1        0.0725
     12 N          15.8190   39.0702   10.1907 N.3     1  UNL1       -0.2647
     13 C          16.9948   39.9200   10.2858 C.3     1  UNL1        0.1582
     14 C          18.2332   39.1010   10.1527 C.2     1  UNL1        0.2357
     15 N          19.2254   39.4534    9.1954 N.am    1  UNL1       -0.3277
     16 O          18.3969   38.0894   10.8824 O.2     1  UNL1       -0.2738
     17 H          19.0988   40.2448    8.6237 H       1  UNL1        0.1450
     18 H          20.0386   38.9058    9.1049 H       1  UNL1        0.1450
     19 N          12.6122   42.3842    5.9114 N.pl3   1  UNL1       -0.2809
     20 H          12.0700   42.6261    5.1260 H       1  UNL1        0.1551
     21 C          13.7986   43.1597    6.1280 C.ar    1  UNL1        0.1526
     22 C          15.0676   45.1391    5.8138 C.ar    1  UNL1        0.1210
     23 C          16.1013   44.5992    6.5799 C.ar    1  UNL1        0.1196
     24 C          14.8353   42.6227    6.8943 C.ar    1  UNL1        0.1332
     25 N          13.9407   44.4087    5.6049 N.ar    1  UNL1       -0.2258
     26 N          15.9626   43.3527    7.1036 N.ar    1  UNL1       -0.2378
@<TRIPOS>BOND
     1     7     8    1
     2     8     9    1
     3     9    10    1
     4     9     1    1
     5    10    12    1
     6    11    12    1
     7    11     7    1
     8    13    12    1
     9    13    14    1
    10    14    15   am
    11     1     6   ar
    12     2     5   ar
    13     3     4   ar
    14     4    19    1
    15    22    25   ar
    16    23    26   ar
    17    24    21   ar
    18    19    21    1
    19    14    16    2
    20     1     2   ar
    21     3     5   ar
    22     4     6   ar
    23    21    25   ar
    24    22    23   ar
    25    24    26   ar
    26    15    17    1
    27    15    18    1
    28    19    20    1
@<TRIPOS>MOLECULE
MolPort-046-956-887 MCULE-2700857628 PubChem-110095889
 26 28 0 0 0
SMALL
GASTEIGER

@<TRIPOS>ATOM
      1 C          11.3470   41.4787    9.8463 C.ar    1  UNL1        0.0805
      2 C          12.0707   40.5909   10.6522 C.ar    1  UNL1        0.1137
      3 C          13.7636   40.4714    9.0031 C.ar    1  UNL1        0.1332
      4 C          13.0459   41.3588    8.1910 C.ar    1  UNL1        0.1522
      5 N          13.2615   40.1083   10.2122 N.ar    1  UNL1       -0.2382
      6 N          11.8544   41.8383    8.6374 N.ar    1  UNL1       -0.2317
      7 C           8.0968   41.7825   11.8602 C.3     1  UNL1        0.0178
      8 C           9.4796   41.2606   11.4832 C.3     1  UNL1        0.0088
      9 C          10.0311   42.0363   10.2864 C.3     1  UNL1        0.0579
     10 C           9.0179   42.0218    9.1402 C.3     1  UNL1        0.0785
     11 C           7.1906   41.7627   10.6314 C.3     1  UNL1        0.0725
     12 N           7.7538   42.6113    9.5824 N.3     1  UNL1       -0.2647
     13 C           6.8362   42.5478    8.4564 C.3     1  UNL1        0.1582
     14 C           5.8000   43.6127    8.5771 C.2     1  UNL1        0.2357
     15 N           4.4184   43.2724    8.5638 N.am    1  UNL1       -0.3277
     16 O           6.1484   44.8171    8.6812 O.2     1  UNL1       -0.2738
     17 H           4.1442   42.3303    8.4824 H       1  UNL1        0.1450
     18 H           3.7366   43.9790    8.6360 H       1  UNL1        0.1450
     19 N          13.5273   41.7764    6.9058 N.pl3   1  UNL1       -0.2809
     20 H          13.2091   41.2586    6.1314 H       1  UNL1        0.1551
     21 C          14.4192   42.8625    6.6211 C.ar    1  UNL1        0.1526
     22 C          16.4370   44.0458    7.0150 C.ar    1  UNL1        0.1210
     23 C          16.0893   44.9691    6.0282 C.ar    1  UNL1        0.1196
     24 C          14.0747   43.7885    5.6341 C.ar    1  UNL1        0.1332
     25 N          15.5956   43.0144    7.2894 N.ar    1  UNL1       -0.2258
     26 N          14.9157   44.8203    5.3592 N.ar    1  UNL1       -0.2378
@<TRIPOS>BOND
     1     7     8    1
     2     8     9    1
     3     9    10    1
     4     9     1    1
     5    10    12    1
     6    11    12    1
     7    11     7    1
     8    13    12    1
     9    13    14    1
    10    14    15   am
    11     1     6   ar
    12     2     5   ar
    13     3     4   ar
    14     4    19    1
    15    22    25   ar
    16    23    26   ar
    17    24    21   ar
    18    19    21    1
    19    14    16    2
    20     1     2   ar
    21     3     5   ar
    22     4     6   ar
    23    21    25   ar
    24    22    23   ar
    25    24    26   ar
    26    15    17    1
    27    15    18    1
    28    19    20    1
@<TRIPOS>MOLECULE
MolPort-046-956-887 MCULE-2700857628 PubChem-110095889
 26 28 0 0 0
SMALL
GASTEIGER

@<TRIPOS>ATOM
      1 C          10.2773   41.1881    8.8042 C.ar    1  UNL1        0.0805
      2 C          10.6186   39.8357    8.9301 C.ar    1  UNL1        0.1137
      3 C          12.1823   40.0647    7.1689 C.ar    1  UNL1        0.1332
      4 C          11.8466   41.4181    7.0365 C.ar    1  UNL1        0.1522
      5 N          11.5626   39.3058    8.1101 N.ar    1  UNL1       -0.2382
      6 N          10.9007   41.9425    7.8606 N.ar    1  UNL1       -0.2317
      7 C           8.2407   41.8838   11.9792 C.3     1  UNL1        0.0178
      8 C           9.3584   41.3034   11.1187 C.3     1  UNL1        0.0088
      9 C           9.2436   41.8169    9.6830 C.3     1  UNL1        0.0579
     10 C           7.8349   41.5585    9.1448 C.3     1  UNL1        0.0785
     11 C           6.8914   41.6037   11.3215 C.3     1  UNL1        0.0725
     12 N           6.8451   42.2192    9.9961 N.3     1  UNL1       -0.2647
     13 C           5.5356   41.9178    9.4412 C.3     1  UNL1        0.1582
     14 C           4.8480   43.1760    9.0333 C.2     1  UNL1        0.2357
     15 N           3.4523   43.1719    8.7559 N.am    1  UNL1       -0.3277
     16 O           5.5061   44.2427    8.9246 O.2     1  UNL1       -0.2738
     17 H           2.9361   42.3379    8.8405 H       1  UNL1        0.1450
     18 H           3.0030   44.0031    8.4793 H       1  UNL1        0.1450
     19 N          12.4679   42.2665    6.0608 N.pl3   1  UNL1       -0.2809
     20 H          12.0265   42.3171    5.1822 H       1  UNL1        0.1551
     21 C          13.6588   43.0492    6.2197 C.ar    1  UNL1        0.1526
     22 C          14.9349   44.9973    5.7683 C.ar    1  UNL1        0.1210
     23 C          15.9700   44.5047    6.5638 C.ar    1  UNL1        0.1196
     24 C          14.6969   42.5596    7.0152 C.ar    1  UNL1        0.1332
     25 N          13.8038   44.2599    5.6138 N.ar    1  UNL1       -0.2258
     26 N          15.8285   43.2966    7.1700 N.ar    1  UNL1       -0.2378
@<TRIPOS>BOND
     1     7     8    1
     2     8     9    1
     3     9    10    1
     4     9     1    1
     5    10    12    1
     6    11    12    1
     7    11     7    1
     8    13    12    1
     9    13    14    1
    10    14    15   am
    11     1     6   ar
    12     2     5   ar
    13     3     4   ar
    14     4    19    1
    15    22    25   ar
    16    23    26   ar
    17    24    21   ar
    18    19    21    1
    19    14    16    2
    20     1     2   ar
    21     3     5   ar
    22     4     6   ar
    23    21    25   ar
    24    22    23   ar
    25    24    26   ar
    26    15    17    1
    27    15    18    1
    28    19    20    1
@<TRIPOS>MOLECULE
MolPort-046-956-887 MCULE-2700857628 PubChem-110095889
 26 28 0 0 0
SMALL
GASTEIGER

@<TRIPOS>ATOM
      1 C           9.8999   40.9684    7.9390 C.ar    1  UNL1        0.0805
      2 C          10.5496   39.9640    8.6672 C.ar    1  UNL1        0.1137
      3 C          12.5819   40.4817    7.5712 C.ar    1  UNL1        0.1332
      4 C          11.9395   41.4881    6.8389 C.ar    1  UNL1        0.1522
      5 N          11.8747   39.7442    8.4666 N.ar    1  UNL1       -0.2382
      6 N          10.6127   41.7032    7.0444 N.ar    1  UNL1       -0.2317
      7 C           6.5743   42.8651    7.7040 C.3     1  UNL1        0.0178
      8 C           8.0407   42.5485    7.4282 C.3     1  UNL1        0.0088
      9 C           8.4424   41.2475    8.1239 C.3     1  UNL1        0.0579
     10 C           8.0804   41.3136    9.6090 C.3     1  UNL1        0.0785
     11 C           6.3247   42.8592    9.2104 C.3     1  UNL1        0.0725
     12 N           6.6438   41.5440    9.7638 N.3     1  UNL1       -0.2647
     13 C           6.3742   41.6148   11.1907 C.3     1  UNL1        0.1582
     14 C           7.6441   41.8187   11.9443 C.2     1  UNL1        0.2357
     15 N           8.2859   43.0887   11.9360 N.am    1  UNL1       -0.3277
     16 O           8.1550   40.8618   12.5815 O.2     1  UNL1       -0.2738
     17 H           7.8872   43.8384   11.4378 H       1  UNL1        0.1450
     18 H           9.1285   43.2177   12.4285 H       1  UNL1        0.1450
     19 N          12.6358   42.2972    5.8806 N.pl3   1  UNL1       -0.2809
     20 H          12.2740   42.2978    4.9650 H       1  UNL1        0.1551
     21 C          13.7989   43.1053    6.1048 C.ar    1  UNL1        0.1526
     22 C          15.0218   45.1128    5.7851 C.ar    1  UNL1        0.1210
     23 C          16.0577   44.6082    6.5721 C.ar    1  UNL1        0.1196
     24 C          14.8378   42.6038    6.8919 C.ar    1  UNL1        0.1332
     25 N          13.9169   44.3514    5.5690 N.ar    1  UNL1       -0.2258
     26 N          15.9431   43.3646    7.1084 N.ar    1  UNL1       -0.2378
@<TRIPOS>BOND
     1     7     8    1
     2     8     9    1
     3     9    10    1
     4     9     1    1
     5    10    12    1
     6    11    12    1
     7    11     7    1
     8    13    12    1
     9    13    14    1
    10    14    15   am
    11     1     6   ar
    12     2     5   ar
    13     3     4   ar
    14     4    19    1
    15    22    25   ar
    16    23    26   ar
    17    24    21   ar
    18    19    21    1
    19    14    16    2
    20     1     2   ar
    21     3     5   ar
    22     4     6   ar
    23    21    25   ar
    24    22    23   ar
    25    24    26   ar
    26    15    17    1
    27    15    18    1
    28    19    20    1
@<TRIPOS>MOLECULE
MolPort-046-956-887 MCULE-2700857628 PubChem-110095889
 26 28 0 0 0
SMALL
GASTEIGER

@<TRIPOS>ATOM
      1 C          10.1587   40.7018    8.1928 C.ar    1  UNL1        0.0805
      2 C          10.8124   40.4943    9.4137 C.ar    1  UNL1        0.1137
      3 C          12.7778   41.4712    8.5292 C.ar    1  UNL1        0.1332
      4 C          12.1311   41.6822    7.3048 C.ar    1  UNL1        0.1522
      5 N          12.1060   40.8838    9.5536 N.ar    1  UNL1       -0.2382
      6 N          10.8361   41.2900    7.1713 N.ar    1  UNL1       -0.2317
      7 C           7.0116   39.5470    6.3287 C.3     1  UNL1        0.0178
      8 C           8.4862   39.8754    6.5392 C.3     1  UNL1        0.0088
      9 C           8.7356   40.2895    7.9898 C.3     1  UNL1        0.0579
     10 C           7.7766   41.4138    8.3864 C.3     1  UNL1        0.0785
     11 C           6.1545   40.7196    6.8000 C.3     1  UNL1        0.0725
     12 N           6.3917   40.9717    8.2205 N.3     1  UNL1       -0.2647
     13 C           5.5395   42.0887    8.5943 C.3     1  UNL1        0.1582
     14 C           6.1641   43.3752    8.1734 C.2     1  UNL1        0.2357
     15 N           6.7991   44.2111    9.1342 N.am    1  UNL1       -0.3277
     16 O           6.1208   43.7275    6.9665 O.2     1  UNL1       -0.2738
     17 H           6.8338   43.9367   10.0790 H       1  UNL1        0.1450
     18 H           7.2039   45.0637    8.8540 H       1  UNL1        0.1450
     19 N          12.7909   42.2974    6.1894 N.pl3   1  UNL1       -0.2809
     20 H          12.4104   42.1116    5.3006 H       1  UNL1        0.1551
     21 C          13.9416   43.1523    6.2220 C.ar    1  UNL1        0.1526
     22 C          15.0173   45.2015    5.7015 C.ar    1  UNL1        0.1210
     23 C          16.1840   44.7465    6.3171 C.ar    1  UNL1        0.1196
     24 C          15.1111   42.7005    6.8372 C.ar    1  UNL1        0.1332
     25 N          13.9235   44.3957    5.6674 N.ar    1  UNL1       -0.2258
     26 N          16.2055   43.5059    6.8716 N.ar    1  UNL1       -0.2378
@<TRIPOS>BOND
     1     7     8    1
     2     8     9    1
     3     9    10    1
     4     9     1    1
     5    10    12    1
     6    11    12    1
     7    11     7    1
     8    13    12    1
     9    13    14    1
    10    14    15   am
    11     1     6   ar
    12     2     5   ar
    13     3     4   ar
    14     4    19    1
    15    22    25   ar
    16    23    26   ar
    17    24    21   ar
    18    19    21    1
    19    14    16    2
    20     1     2   ar
    21     3     5   ar
    22     4     6   ar
    23    21    25   ar
    24    22    23   ar
    25    24    26   ar
    26    15    17    1
    27    15    18    1
    28    19    20    1
@<TRIPOS>MOLECULE
MolPort-046-956-887 MCULE-2700857628 PubChem-110095889
 26 28 0 0 0
SMALL
GASTEIGER

@<TRIPOS>ATOM
      1 C          10.4343   40.6983    8.6854 C.ar    1  UNL1        0.0805
      2 C          10.8359   40.5484   10.0186 C.ar    1  UNL1        0.1137
      3 C          13.0857   40.9158    9.3838 C.ar    1  UNL1        0.1332
      4 C          12.6922   41.0670    8.0481 C.ar    1  UNL1        0.1522
      5 N          12.1515   40.6607   10.3367 N.ar    1  UNL1       -0.2382
      6 N          11.3736   40.9535    7.7363 N.ar    1  UNL1       -0.2317
      7 C           7.3250   40.9267    6.4510 C.3     1  UNL1        0.0178
      8 C           8.8054   40.9610    6.8167 C.3     1  UNL1        0.0088
      9 C           8.9979   40.5826    8.2856 C.3     1  UNL1        0.0579
     10 C           8.1091   41.4564    9.1729 C.3     1  UNL1        0.0785
     11 C           6.5369   41.7955    7.4286 C.3     1  UNL1        0.0725
     12 N           6.7061   41.2929    8.7911 N.3     1  UNL1       -0.2647
     13 C           5.9243   42.1610    9.6565 C.3     1  UNL1        0.1582
     14 C           4.9237   41.3609   10.4187 C.2     1  UNL1        0.2357
     15 N           3.9466   40.5906    9.7282 N.am    1  UNL1       -0.3277
     16 O           4.9374   41.3748   11.6766 O.2     1  UNL1       -0.2738
     17 H           3.9347   40.5788    8.7438 H       1  UNL1        0.1450
     18 H           3.2825   40.0695   10.2348 H       1  UNL1        0.1450
     19 N          13.6346   41.3371    7.0008 N.pl3   1  UNL1       -0.2809
     20 H          13.8797   40.5754    6.4272 H       1  UNL1        0.1551
     21 C          14.2604   42.5904    6.6946 C.ar    1  UNL1        0.1526
     22 C          16.0624   44.1170    6.9168 C.ar    1  UNL1        0.1210
     23 C          15.4099   45.0123    6.0686 C.ar    1  UNL1        0.1196
     24 C          13.6103   43.4891    5.8459 C.ar    1  UNL1        0.1332
     25 N          15.4743   42.9275    7.2108 N.ar    1  UNL1       -0.2258
     26 N          14.1980   44.6788    5.5515 N.ar    1  UNL1       -0.2378
@<TRIPOS>BOND
     1     7     8    1
     2     8     9    1
     3     9    10    1
     4     9     1    1
     5    10    12    1
     6    11    12    1
     7    11     7    1
     8    13    12    1
     9    13    14    1
    10    14    15   am
    11     1     6   ar
    12     2     5   ar
    13     3     4   ar
    14     4    19    1
    15    22    25   ar
    16    23    26   ar
    17    24    21   ar
    18    19    21    1
    19    14    16    2
    20     1     2   ar
    21     3     5   ar
    22     4     6   ar
    23    21    25   ar
    24    22    23   ar
    25    24    26   ar
    26    15    17    1
    27    15    18    1
    28    19    20    1
@<TRIPOS>MOLECULE
MolPort-046-956-887 MCULE-2700857628 PubChem-110095889
 26 28 0 0 0
SMALL
GASTEIGER

@<TRIPOS>ATOM
      1 C          12.4838   40.3023    9.5252 C.ar    1  UNL1        0.0805
      2 C          12.9026   39.5172   10.6066 C.ar    1  UNL1        0.1137
      3 C          15.1596   40.0029   10.0872 C.ar    1  UNL1        0.1332
      4 C          14.7489   40.7899    9.0036 C.ar    1  UNL1        0.1522
      5 N          14.2300   39.3859   10.8623 N.ar    1  UNL1       -0.2382
      6 N          13.4186   40.9173    8.7530 N.ar    1  UNL1       -0.2317
      7 C           9.3702   41.2239    7.4834 C.3     1  UNL1        0.0178
      8 C          10.8465   40.9635    7.7656 C.3     1  UNL1        0.0088
      9 C          11.0339   40.4765    9.2028 C.3     1  UNL1        0.0579
     10 C          10.3681   41.4501   10.1773 C.3     1  UNL1        0.0785
     11 C           8.8066   42.1690    8.5420 C.3     1  UNL1        0.0725
     12 N           8.9429   41.5703    9.8688 N.3     1  UNL1       -0.2647
     13 C           8.3799   42.5197   10.8151 C.3     1  UNL1        0.1582
     14 C           7.8904   41.8065   12.0292 C.2     1  UNL1        0.2357
     15 N           8.7119   41.7181   13.1878 N.am    1  UNL1       -0.3277
     16 O           6.7513   41.2727   12.0257 O.2     1  UNL1       -0.2738
     17 H           9.6036   42.1353   13.1921 H       1  UNL1        0.1450
     18 H           8.3885   41.2397   13.9852 H       1  UNL1        0.1450
     19 N          15.6857   41.4640    8.1518 N.pl3   1  UNL1       -0.2809
     20 H          16.6012   41.1022    8.1374 H       1  UNL1        0.1551
     21 C          15.4403   42.6050    7.3188 C.ar    1  UNL1        0.1526
     22 C          14.1557   43.7338    5.6746 C.ar    1  UNL1        0.1210
     23 C          15.0225   44.8250    5.7452 C.ar    1  UNL1        0.1196
     24 C          16.3055   43.6992    7.3867 C.ar    1  UNL1        0.1332
     25 N          14.3833   42.6494    6.4616 N.ar    1  UNL1       -0.2258
     26 N          16.0785   44.7840    6.5998 N.ar    1  UNL1       -0.2378
@<TRIPOS>BOND
     1     7     8    1
     2     8     9    1
     3     9    10    1
     4     9     1    1
     5    10    12    1
     6    11    12    1
     7    11     7    1
     8    13    12    1
     9    13    14    1
    10    14    15   am
    11     1     6   ar
    12     2     5   ar
    13     3     4   ar
    14     4    19    1
    15    22    25   ar
    16    23    26   ar
    17    24    21   ar
    18    19    21    1
    19    14    16    2
    20     1     2   ar
    21     3     5   ar
    22     4     6   ar
    23    21    25   ar
    24    22    23   ar
    25    24    26   ar
    26    15    17    1
    27    15    18    1
    28    19    20    1
@<TRIPOS>MOLECULE
MolPort-046-956-887 MCULE-2700857628 PubChem-110095889
 26 28 0 0 0
SMALL
GASTEIGER

@<TRIPOS>ATOM
      1 C          11.8018   41.2103    9.8345 C.ar    1  UNL1        0.0805
      2 C          12.1859   40.2948   10.8221 C.ar    1  UNL1        0.1137
      3 C          14.3026   40.0662    9.7893 C.ar    1  UNL1        0.1332
      4 C          13.9261   40.9810    8.7976 C.ar    1  UNL1        0.1522
      5 N          13.4267   39.7444   10.7767 N.ar    1  UNL1       -0.2382
      6 N          12.6825   41.5284    8.8488 N.ar    1  UNL1       -0.2317
      7 C           8.3237   42.1761   11.1315 C.3     1  UNL1        0.0178
      8 C           9.7377   41.6057   11.1751 C.3     1  UNL1        0.0088
      9 C          10.4465   41.8423    9.8411 C.3     1  UNL1        0.0579
     10 C           9.5884   41.3128    8.6903 C.3     1  UNL1        0.0785
     11 C           7.5823   41.6125    9.9214 C.3     1  UNL1        0.0725
     12 N           8.2846   41.9768    8.6919 N.3     1  UNL1       -0.2647
     13 C           7.5183   41.4154    7.5913 C.3     1  UNL1        0.1582
     14 C           7.7133   42.2322    6.3597 C.2     1  UNL1        0.2357
     15 N           8.9850   42.2748    5.7225 N.am    1  UNL1       -0.3277
     16 O           6.7529   42.8938    5.8880 O.2     1  UNL1       -0.2738
     17 H           9.7376   41.7576    6.0905 H       1  UNL1        0.1450
     18 H           9.1123   42.8214    4.9136 H       1  UNL1        0.1450
     19 N          14.8093   41.3574    7.7317 N.pl3   1  UNL1       -0.2809
     20 H          15.4408   40.6676    7.4241 H       1  UNL1        0.1551
     21 C          14.8770   42.6243    7.0635 C.ar    1  UNL1        0.1526
     22 C          16.0176   44.6406    6.5529 C.ar    1  UNL1        0.1210
     23 C          14.9470   45.0452    5.7547 C.ar    1  UNL1        0.1196
     24 C          13.8074   43.0327    6.2637 C.ar    1  UNL1        0.1332
     25 N          15.9592   43.4409    7.1889 N.ar    1  UNL1       -0.2258
     26 N          13.8652   44.2324    5.6275 N.ar    1  UNL1       -0.2378
@<TRIPOS>BOND
     1     7     8    1
     2     8     9    1
     3     9    10    1
     4     9     1    1
     5    10    12    1
     6    11    12    1
     7    11     7    1
     8    13    12    1
     9    13    14    1
    10    14    15   am
    11     1     6   ar
    12     2     5   ar
    13     3     4   ar
    14     4    19    1
    15    22    25   ar
    16    23    26   ar
    17    24    21   ar
    18    19    21    1
    19    14    16    2
    20     1     2   ar
    21     3     5   ar
    22     4     6   ar
    23    21    25   ar
    24    22    23   ar
    25    24    26   ar
    26    15    17    1
    27    15    18    1
    28    19    20    1
@<TRIPOS>MOLECULE
MolPort-046-956-887 MCULE-2700857628 PubChem-110095889
 26 28 0 0 0
SMALL
GASTEIGER

@<TRIPOS>ATOM
      1 C          12.7572   42.0532    7.0796 C.ar    1  UNL1        0.0805
      2 C          13.3963   43.1734    6.5338 C.ar    1  UNL1        0.1137
      3 C          15.4352   42.4950    7.5247 C.ar    1  UNL1        0.1332
      4 C          14.8034   41.3721    8.0743 C.ar    1  UNL1        0.1522
      5 N          14.7197   43.3681    6.7688 N.ar    1  UNL1       -0.2382
      6 N          13.4783   41.1830    7.8353 N.ar    1  UNL1       -0.2317
      7 C           9.0475   41.5576    7.9191 C.3     1  UNL1        0.0178
      8 C          10.5121   41.9127    8.1541 C.3     1  UNL1        0.0088
      9 C          11.3020   41.7962    6.8500 C.3     1  UNL1        0.0579
     10 C          11.0802   40.4178    6.2241 C.3     1  UNL1        0.0785
     11 C           8.9545   40.1869    7.2526 C.3     1  UNL1        0.0725
     12 N           9.6547   40.2076    5.9693 N.3     1  UNL1       -0.2647
     13 C           9.5150   38.8790    5.3959 C.3     1  UNL1        0.1582
     14 C           9.8787   38.9021    3.9504 C.2     1  UNL1        0.2357
     15 N          11.0544   38.2410    3.4971 N.am    1  UNL1       -0.3277
     16 O           9.1487   39.5164    3.1304 O.2     1  UNL1       -0.2738
     17 H          11.6266   37.7598    4.1376 H       1  UNL1        0.1450
     18 H          11.2957   38.2648    2.5429 H       1  UNL1        0.1450
     19 N          15.5089   40.4176    8.8799 N.pl3   1  UNL1       -0.2809
     20 H          16.4901   40.4972    8.8920 H       1  UNL1        0.1551
     21 C          14.9473   39.3607    9.6697 C.ar    1  UNL1        0.1526
     22 C          14.5419   37.0566   10.0621 C.ar    1  UNL1        0.1210
     23 C          13.8462   37.3766   11.2285 C.ar    1  UNL1        0.1196
     24 C          14.2503   39.6771   10.8378 C.ar    1  UNL1        0.1332
     25 N          15.0763   38.0540    9.3094 N.ar    1  UNL1       -0.2258
     26 N          13.7156   38.6800   11.5910 N.ar    1  UNL1       -0.2378
@<TRIPOS>BOND
     1     7     8    1
     2     8     9    1
     3     9    10    1
     4     9     1    1
     5    10    12    1
     6    11    12    1
     7    11     7    1
     8    13    12    1
     9    13    14    1
    10    14    15   am
    11     1     6   ar
    12     2     5   ar
    13     3     4   ar
    14     4    19    1
    15    22    25   ar
    16    23    26   ar
    17    24    21   ar
    18    19    21    1
    19    14    16    2
    20     1     2   ar
    21     3     5   ar
    22     4     6   ar
    23    21    25   ar
    24    22    23   ar
    25    24    26   ar
    26    15    17    1
    27    15    18    1
    28    19    20    1
@<TRIPOS>MOLECULE
MolPort-046-956-887 MCULE-2700857628 PubChem-110095889
 26 28 0 0 0
SMALL
GASTEIGER

@<TRIPOS>ATOM
      1 C          12.1869   39.8456    8.5574 C.ar    1  UNL1        0.0805
      2 C          11.8436   39.4459    9.8549 C.ar    1  UNL1        0.1137
      3 C          14.0555   39.8795   10.5755 C.ar    1  UNL1        0.1332
      4 C          14.4069   40.2807    9.2803 C.ar    1  UNL1        0.1522
      5 N          12.7853   39.4722   10.8333 N.ar    1  UNL1       -0.2382
      6 N          13.4596   40.2521    8.3054 N.ar    1  UNL1       -0.2317
      7 C          10.7065   40.5166    5.0831 C.3     1  UNL1        0.0178
      8 C          11.7685   40.4532    6.1762 C.3     1  UNL1        0.0088
      9 C          11.1857   39.8332    7.4466 C.3     1  UNL1        0.0579
     10 C           9.9078   40.5708    7.8514 C.3     1  UNL1        0.0785
     11 C           9.4671   41.2318    5.6157 C.3     1  UNL1        0.0725
     12 N           8.9287   40.5076    6.7659 N.3     1  UNL1       -0.2647
     13 C           7.7534   41.2404    7.2080 C.3     1  UNL1        0.1582
     14 C           6.5203   40.4499    6.9310 C.2     1  UNL1        0.2357
     15 N           5.3484   40.6537    7.7121 N.am    1  UNL1       -0.3277
     16 O           6.5191   39.5930    6.0100 O.2     1  UNL1       -0.2738
     17 H           5.3478   41.3239    8.4332 H       1  UNL1        0.1450
     18 H           4.5382   40.1244    7.5314 H       1  UNL1        0.1450
     19 N          15.7323   40.7198    8.9507 N.pl3   1  UNL1       -0.2809
     20 H          16.4656   40.1048    9.1813 H       1  UNL1        0.1551
     21 C          16.1102   41.9526    8.3235 C.ar    1  UNL1        0.1526
     22 C          15.7055   43.6959    6.7665 C.ar    1  UNL1        0.1210
     23 C          16.8902   44.3212    7.1571 C.ar    1  UNL1        0.1196
     24 C          17.2952   42.5814    8.7119 C.ar    1  UNL1        0.1332
     25 N          15.3421   42.5271    7.3572 N.ar    1  UNL1       -0.2258
     26 N          17.6592   43.7503    8.1214 N.ar    1  UNL1       -0.2378
@<TRIPOS>BOND
     1     7     8    1
     2     8     9    1
     3     9    10    1
     4     9     1    1
     5    10    12    1
     6    11    12    1
     7    11     7    1
     8    13    12    1
     9    13    14    1
    10    14    15   am
    11     1     6   ar
    12     2     5   ar
    13     3     4   ar
    14     4    19    1
    15    22    25   ar
    16    23    26   ar
    17    24    21   ar
    18    19    21    1
    19    14    16    2
    20     1     2   ar
    21     3     5   ar
    22     4     6   ar
    23    21    25   ar
    24    22    23   ar
    25    24    26   ar
    26    15    17    1
    27    15    18    1
    28    19    20    1
