@<TRIPOS>MOLECULE
MolPort-010-852-351 41108820 ChemDiv-G952-3207 MCULE-3308973110 PubChem-52103595 ZINC000041108820
 27 30 0 0 0
SMALL
GASTEIGER

@<TRIPOS>ATOM
      1 N          -0.4575   43.0642   15.9173 N.ar    1  UNL1       -0.1881
      2 N           0.7317   43.1406   15.3439 N.ar    1  UNL1       -0.1399
      3 N          -2.4723   42.1854   16.1053 N.ar    1  UNL1       -0.1202
      4 N          -2.3000   43.0599   17.1052 N.ar    1  UNL1       -0.1310
      5 C           0.7628   42.2836   14.2839 C.ar    1  UNL1        0.1882
      6 C          -1.3219   42.2283   15.4117 C.ar    1  UNL1        0.2195
      7 C          -1.0559   43.5993   16.9811 C.ar    1  UNL1        0.1639
      8 S          -0.7177   41.4051   14.0851 S.2     1  UNL1       -0.0111
      9 C          -0.4325   44.5772   17.9212 C.3     1  UNL1        0.0606
     10 C          -1.4584   45.0655   18.9584 C.3     1  UNL1        0.0076
     11 C          -1.3423   44.2916   20.2712 C.3     1  UNL1        0.0004
     12 C           0.0488   44.4591   20.8984 C.3     1  UNL1        0.0000
     13 C           1.1702   44.6512   19.8675 C.3     1  UNL1        0.0004
     14 C           0.8341   43.9721   18.5433 C.3     1  UNL1        0.0076
     15 N           1.9327   42.1390   13.4692 N.am    1  UNL1       -0.2592
     16 C           1.9786   42.1130   12.0355 C.2     1  UNL1        0.2509
     17 O           0.9275   42.2658   11.3562 O.2     1  UNL1       -0.2698
     18 H           2.7920   42.0482   13.9410 H       1  UNL1        0.1571
     19 C           3.2680   41.9107   11.3505 C.ar    1  UNL1        0.0539
     20 C           3.5680   42.6248   10.1824 C.ar    1  UNL1        0.0076
     21 C           4.7923   42.4375    9.5345 C.ar    1  UNL1        0.0370
     22 C           5.7346   41.5316   10.0474 C.ar    1  UNL1        0.1386
     23 C           5.4354   40.8185   11.2126 C.ar    1  UNL1        0.0370
     24 C           4.2104   41.0055   11.8605 C.ar    1  UNL1        0.0076
     25 O           6.9707   41.3237    9.4238 O.3     1  UNL1       -0.4755
     26 C           7.1139   41.1186    8.0221 C.3     1  UNL1        0.2055
     27 C           8.1969   42.0271    7.4690 C.3     1  UNL1        0.0512
@<TRIPOS>BOND
     1     1     2   ar
     2     3     4   ar
     3    15    16   am
     4     5     8   ar
     5     5    15    1
     6     6     8   ar
     7     6     1   ar
     8     7     1   ar
     9     9     7    1
    10     9    10    1
    11    10    11    1
    12    11    12    1
    13    12    13    1
    14    13    14    1
    15    14     9    1
    16    16    19    1
    17    20    21   ar
    18    22    23   ar
    19    22    25    1
    20    24    19   ar
    21    26    25    1
    22    26    27    1
    23     5     2   ar
    24     6     3   ar
    25     7     4   ar
    26    16    17    2
    27    19    20   ar
    28    21    22   ar
    29    23    24   ar
    30    15    18    1
@<TRIPOS>MOLECULE
MolPort-010-852-351 41108820 ChemDiv-G952-3207 MCULE-3308973110 PubChem-52103595 ZINC000041108820
 27 30 0 0 0
SMALL
GASTEIGER

@<TRIPOS>ATOM
      1 N           7.4935   43.1223    9.3688 N.ar    1  UNL1       -0.1881
      2 N           8.3839   42.2072    9.7132 N.ar    1  UNL1       -0.1399
      3 N           6.9436   45.1797    8.7921 N.ar    1  UNL1       -0.1202
      4 N           5.8485   44.4127    8.7093 N.ar    1  UNL1       -0.1310
      5 C           9.6034   42.8052    9.8318 C.ar    1  UNL1        0.1882
      6 C           7.9152   44.3451    9.1993 C.ar    1  UNL1        0.2195
      7 C           6.1953   43.1459    9.0686 C.ar    1  UNL1        0.1639
      8 S           9.5592   44.5005    9.4751 S.2     1  UNL1       -0.0111
      9 C           5.2897   41.9591    9.0603 C.3     1  UNL1        0.0606
     10 C           5.6288   41.0073   10.2205 C.3     1  UNL1        0.0076
     11 C           4.7114   41.2357   11.4213 C.3     1  UNL1        0.0004
     12 C           3.2401   40.9954   11.0553 C.3     1  UNL1        0.0000
     13 C           2.9063   41.3295    9.5944 C.3     1  UNL1        0.0004
     14 C           3.8244   42.4177    9.0463 C.3     1  UNL1        0.0076
     15 N          10.7742   42.0593   10.1870 N.am    1  UNL1       -0.2592
     16 C          11.6900   41.4239    9.2838 C.2     1  UNL1        0.2509
     17 O          11.5341   41.5215    8.0365 O.2     1  UNL1       -0.2698
     18 H          10.9700   41.9743   11.1481 H       1  UNL1        0.1571
     19 C          12.8267   40.6536    9.8198 C.ar    1  UNL1        0.0539
     20 C          14.0577   40.6505    9.1497 C.ar    1  UNL1        0.0076
     21 C          15.1379   39.9245    9.6593 C.ar    1  UNL1        0.0370
     22 C          15.0008   39.1902   10.8483 C.ar    1  UNL1        0.1386
     23 C          13.7725   39.1925   11.5169 C.ar    1  UNL1        0.0370
     24 C          12.6918   39.9186   11.0068 C.ar    1  UNL1        0.0076
     25 O          16.0642   38.4555   11.3863 O.3     1  UNL1       -0.4755
     26 C          17.1101   37.9012   10.5948 C.3     1  UNL1        0.2055
     27 C          18.3819   38.7116   10.7678 C.3     1  UNL1        0.0512
@<TRIPOS>BOND
     1     1     2   ar
     2     3     4   ar
     3    15    16   am
     4     5     8   ar
     5     5    15    1
     6     6     8   ar
     7     6     1   ar
     8     7     1   ar
     9     9     7    1
    10     9    10    1
    11    10    11    1
    12    11    12    1
    13    12    13    1
    14    13    14    1
    15    14     9    1
    16    16    19    1
    17    20    21   ar
    18    22    23   ar
    19    22    25    1
    20    24    19   ar
    21    26    25    1
    22    26    27    1
    23     5     2   ar
    24     6     3   ar
    25     7     4   ar
    26    16    17    2
    27    19    20   ar
    28    21    22   ar
    29    23    24   ar
    30    15    18    1
@<TRIPOS>MOLECULE
MolPort-010-852-351 41108820 ChemDiv-G952-3207 MCULE-3308973110 PubChem-52103595 ZINC000041108820
 27 30 0 0 0
SMALL
GASTEIGER

@<TRIPOS>ATOM
      1 N          -0.0385   43.6380   15.1748 N.ar    1  UNL1       -0.1881
      2 N           0.9493   43.8716   14.3271 N.ar    1  UNL1       -0.1399
      3 N          -1.7135   42.4089   15.9172 N.ar    1  UNL1       -0.1202
      4 N          -1.5296   43.4271   16.7679 N.ar    1  UNL1       -0.1310
      5 C           0.9416   42.9028   13.3677 C.ar    1  UNL1        0.1882
      6 C          -0.7810   42.5861   14.9656 C.ar    1  UNL1        0.2195
      7 C          -0.4964   44.1817   16.3021 C.ar    1  UNL1        0.1639
      8 S          -0.3100   41.7283   13.6072 S.2     1  UNL1       -0.0111
      9 C           0.0797   45.3821   16.9774 C.3     1  UNL1        0.0606
     10 C           1.2452   44.9818   17.8985 C.3     1  UNL1        0.0076
     11 C           2.5967   45.1772   17.2121 C.3     1  UNL1        0.0004
     12 C           2.8167   46.6442   16.8169 C.3     1  UNL1        0.0000
     13 C           1.5197   47.3910   16.4743 C.3     1  UNL1        0.0004
     14 C           0.4553   46.4421   15.9320 C.3     1  UNL1        0.0076
     15 N           1.9084   42.8855   12.3102 N.am    1  UNL1       -0.2592
     16 C           2.8899   41.8681   12.0654 C.2     1  UNL1        0.2509
     17 O           2.9412   40.8373   12.7896 O.2     1  UNL1       -0.2698
     18 H           1.8982   43.6490   11.6888 H       1  UNL1        0.1571
     19 C           3.8440   42.0277   10.9533 C.ar    1  UNL1        0.0539
     20 C           3.5680   42.9182    9.9067 C.ar    1  UNL1        0.0076
     21 C           4.4741   43.0741    8.8539 C.ar    1  UNL1        0.0370
     22 C           5.6707   42.3396    8.8339 C.ar    1  UNL1        0.1386
     23 C           5.9462   41.4505    9.8775 C.ar    1  UNL1        0.0370
     24 C           5.0395   41.2943   10.9305 C.ar    1  UNL1        0.0076
     25 O           6.6001   42.4753    7.7956 O.3     1  UNL1       -0.4755
     26 C           7.9561   42.8553    8.0057 C.3     1  UNL1        0.2055
     27 C           8.8764   41.6788    7.7350 C.3     1  UNL1        0.0512
@<TRIPOS>BOND
     1     1     2   ar
     2     3     4   ar
     3    15    16   am
     4     5     8   ar
     5     5    15    1
     6     6     8   ar
     7     6     1   ar
     8     7     1   ar
     9     9     7    1
    10     9    10    1
    11    10    11    1
    12    11    12    1
    13    12    13    1
    14    13    14    1
    15    14     9    1
    16    16    19    1
    17    20    21   ar
    18    22    23   ar
    19    22    25    1
    20    24    19   ar
    21    26    25    1
    22    26    27    1
    23     5     2   ar
    24     6     3   ar
    25     7     4   ar
    26    16    17    2
    27    19    20   ar
    28    21    22   ar
    29    23    24   ar
    30    15    18    1
@<TRIPOS>MOLECULE
MolPort-010-852-351 41108820 ChemDiv-G952-3207 MCULE-3308973110 PubChem-52103595 ZINC000041108820
 27 30 0 0 0
SMALL
GASTEIGER

@<TRIPOS>ATOM
      1 N          18.4636   33.9778    9.8564 N.ar    1  UNL1       -0.1881
      2 N          18.1532   35.1391    9.3052 N.ar    1  UNL1       -0.1399
      3 N          19.3544   32.7695   11.4732 N.ar    1  UNL1       -0.1202
      4 N          18.7581   31.9394   10.6074 N.ar    1  UNL1       -0.1310
      5 C          18.6700   36.1405   10.0726 C.ar    1  UNL1        0.1882
      6 C          19.1465   33.9974   10.9676 C.ar    1  UNL1        0.2195
      7 C          18.2130   32.6919    9.6121 C.ar    1  UNL1        0.1639
      8 S          19.5059   35.5527   11.4722 S.2     1  UNL1       -0.0111
      9 C          17.4045   32.1720    8.4697 C.3     1  UNL1        0.0606
     10 C          15.9461   32.6508    8.5724 C.3     1  UNL1        0.0076
     11 C          15.6972   33.8848    7.7057 C.3     1  UNL1        0.0004
     12 C          15.9736   33.5930    6.2242 C.3     1  UNL1        0.0000
     13 C          17.0708   32.5432    5.9973 C.3     1  UNL1        0.0004
     14 C          18.0812   32.5353    7.1403 C.3     1  UNL1        0.0076
     15 N          18.4866   37.5199    9.7305 N.am    1  UNL1       -0.2592
     16 C          17.2429   38.2342    9.6950 C.2     1  UNL1        0.2509
     17 O          16.1661   37.6660   10.0229 O.2     1  UNL1       -0.2698
     18 H          19.2960   38.0289    9.4959 H       1  UNL1        0.1571
     19 C          17.2250   39.6472    9.2760 C.ar    1  UNL1        0.0539
     20 C          18.3309   40.2043    8.6193 C.ar    1  UNL1        0.0076
     21 C          18.3135   41.5428    8.2170 C.ar    1  UNL1        0.0370
     22 C          17.1874   42.3436    8.4670 C.ar    1  UNL1        0.1386
     23 C          16.0841   41.7883    9.1228 C.ar    1  UNL1        0.0370
     24 C          16.1018   40.4494    9.5256 C.ar    1  UNL1        0.0076
     25 O          17.1375   43.6864    8.0742 O.3     1  UNL1       -0.4755
     26 C          17.9147   44.7094    8.6883 C.3     1  UNL1        0.2055
     27 C          17.6549   44.7362   10.1837 C.3     1  UNL1        0.0512
@<TRIPOS>BOND
     1     1     2   ar
     2     3     4   ar
     3    15    16   am
     4     5     8   ar
     5     5    15    1
     6     6     8   ar
     7     6     1   ar
     8     7     1   ar
     9     9     7    1
    10     9    10    1
    11    10    11    1
    12    11    12    1
    13    12    13    1
    14    13    14    1
    15    14     9    1
    16    16    19    1
    17    20    21   ar
    18    22    23   ar
    19    22    25    1
    20    24    19   ar
    21    26    25    1
    22    26    27    1
    23     5     2   ar
    24     6     3   ar
    25     7     4   ar
    26    16    17    2
    27    19    20   ar
    28    21    22   ar
    29    23    24   ar
    30    15    18    1
@<TRIPOS>MOLECULE
MolPort-010-852-351 41108820 ChemDiv-G952-3207 MCULE-3308973110 PubChem-52103595 ZINC000041108820
 27 30 0 0 0
SMALL
GASTEIGER

@<TRIPOS>ATOM
      1 N           5.1725   43.3556    8.9763 N.ar    1  UNL1       -0.1881
      2 N           6.1416   42.5415    9.3594 N.ar    1  UNL1       -0.1399
      3 N           4.4125   45.0448    7.7777 N.ar    1  UNL1       -0.1202
      4 N           3.3796   44.4912    8.4266 N.ar    1  UNL1       -0.1310
      5 C           7.3059   42.9394    8.7721 C.ar    1  UNL1        0.1882
      6 C           5.4793   44.3164    8.1491 C.ar    1  UNL1        0.2195
      7 C           3.8567   43.4516    9.1653 C.ar    1  UNL1        0.1639
      8 S           7.1030   44.3177    7.7413 S.2     1  UNL1       -0.0111
      9 C           3.0343   42.5234    9.9965 C.3     1  UNL1        0.0606
     10 C           3.0555   41.1020    9.4083 C.3     1  UNL1        0.0076
     11 C           4.0892   40.2198   10.1075 C.3     1  UNL1        0.0004
     12 C           3.7868   40.0839   11.6064 C.3     1  UNL1        0.0000
     13 C           3.1045   41.3190   12.2116 C.3     1  UNL1        0.0004
     14 C           3.4866   42.5918   11.4621 C.3     1  UNL1        0.0076
     15 N           8.5361   42.2383    8.9924 N.am    1  UNL1       -0.2592
     16 C           9.4959   42.4995   10.0263 C.2     1  UNL1        0.2509
     17 O           9.2848   43.3958   10.8874 O.2     1  UNL1       -0.2698
     18 H           8.7436   41.5030    8.3715 H       1  UNL1        0.1571
     19 C          10.7383   41.7086   10.0848 C.ar    1  UNL1        0.0539
     20 C          10.9247   40.7579   11.0977 C.ar    1  UNL1        0.0076
     21 C          12.1003   40.0038   11.1516 C.ar    1  UNL1        0.0370
     22 C          13.1073   40.1911   10.1911 C.ar    1  UNL1        0.1386
     23 C          12.9221   41.1399    9.1806 C.ar    1  UNL1        0.0370
     24 C          11.7461   41.8946    9.1270 C.ar    1  UNL1        0.0076
     25 O          14.2947   39.4497   10.2157 O.3     1  UNL1       -0.4755
     26 C          14.8969   38.9788   11.4169 C.3     1  UNL1        0.2055
     27 C          16.3796   38.7381   11.1986 C.3     1  UNL1        0.0512
@<TRIPOS>BOND
     1     1     2   ar
     2     3     4   ar
     3    15    16   am
     4     5     8   ar
     5     5    15    1
     6     6     8   ar
     7     6     1   ar
     8     7     1   ar
     9     9     7    1
    10     9    10    1
    11    10    11    1
    12    11    12    1
    13    12    13    1
    14    13    14    1
    15    14     9    1
    16    16    19    1
    17    20    21   ar
    18    22    23   ar
    19    22    25    1
    20    24    19   ar
    21    26    25    1
    22    26    27    1
    23     5     2   ar
    24     6     3   ar
    25     7     4   ar
    26    16    17    2
    27    19    20   ar
    28    21    22   ar
    29    23    24   ar
    30    15    18    1
@<TRIPOS>MOLECULE
MolPort-010-852-351 41108820 ChemDiv-G952-3207 MCULE-3308973110 PubChem-52103595 ZINC000041108820
 27 30 0 0 0
SMALL
GASTEIGER

@<TRIPOS>ATOM
      1 N           4.5253   39.6051   12.1178 N.ar    1  UNL1       -0.1881
      2 N           5.3112   40.1012   11.1769 N.ar    1  UNL1       -0.1399
      3 N           2.5566   39.3814   13.0880 N.ar    1  UNL1       -0.1202
      4 N           3.4237   38.5666   13.7033 N.ar    1  UNL1       -0.1310
      5 C           4.5858   40.9646   10.4105 C.ar    1  UNL1        0.1882
      6 C           3.2793   39.9908   12.1326 C.ar    1  UNL1        0.2195
      7 C           4.6360   38.7119   13.1006 C.ar    1  UNL1        0.1639
      8 S           2.9315   41.0833   10.9127 S.2     1  UNL1       -0.0111
      9 C           5.8729   37.9459   13.4354 C.3     1  UNL1        0.0606
     10 C           6.7234   38.7084   14.4661 C.3     1  UNL1        0.0076
     11 C           6.4710   38.2040   15.8865 C.3     1  UNL1        0.0004
     12 C           6.8228   36.7160   16.0228 C.3     1  UNL1        0.0000
     13 C           6.6072   35.9114   14.7330 C.3     1  UNL1        0.0004
     14 C           5.5049   36.5207   13.8722 C.3     1  UNL1        0.0076
     15 N           5.1699   41.6538    9.2982 N.am    1  UNL1       -0.2592
     16 C           6.5647   41.9205    9.0941 C.2     1  UNL1        0.2509
     17 O           7.4255   41.5031    9.9153 O.2     1  UNL1       -0.2698
     18 H           4.5514   41.9769    8.6037 H       1  UNL1        0.1571
     19 C           6.9953   42.6858    7.9102 C.ar    1  UNL1        0.0539
     20 C           6.6308   44.0315    7.7668 C.ar    1  UNL1        0.0076
     21 C           7.0425   44.7598    6.6471 C.ar    1  UNL1        0.0370
     22 C           7.8257   44.1503    5.6537 C.ar    1  UNL1        0.1386
     23 C           8.1891   42.8074    5.7960 C.ar    1  UNL1        0.0370
     24 C           7.7768   42.0787    6.9161 C.ar    1  UNL1        0.0076
     25 O           8.2566   44.8530    4.5221 O.3     1  UNL1       -0.4755
     26 C           7.5889   44.7956    3.2657 C.3     1  UNL1        0.2055
     27 C           6.3324   43.9516    3.3800 C.3     1  UNL1        0.0512
@<TRIPOS>BOND
     1     1     2   ar
     2     3     4   ar
     3    15    16   am
     4     5     8   ar
     5     5    15    1
     6     6     8   ar
     7     6     1   ar
     8     7     1   ar
     9     9     7    1
    10     9    10    1
    11    10    11    1
    12    11    12    1
    13    12    13    1
    14    13    14    1
    15    14     9    1
    16    16    19    1
    17    20    21   ar
    18    22    23   ar
    19    22    25    1
    20    24    19   ar
    21    26    25    1
    22    26    27    1
    23     5     2   ar
    24     6     3   ar
    25     7     4   ar
    26    16    17    2
    27    19    20   ar
    28    21    22   ar
    29    23    24   ar
    30    15    18    1
@<TRIPOS>MOLECULE
MolPort-010-852-351 41108820 ChemDiv-G952-3207 MCULE-3308973110 PubChem-52103595 ZINC000041108820
 27 30 0 0 0
SMALL
GASTEIGER

@<TRIPOS>ATOM
      1 N          10.5123   40.5277    8.3003 N.ar    1  UNL1       -0.1881
      2 N          11.2344   39.4644    8.6114 N.ar    1  UNL1       -0.1399
      3 N           9.9791   42.1881    6.9490 N.ar    1  UNL1       -0.1202
      4 N           9.1109   42.1807    7.9690 N.ar    1  UNL1       -0.1310
      5 C          12.1892   39.2879    7.6542 C.ar    1  UNL1        0.1882
      6 C          10.8111   41.1631    7.2009 C.ar    1  UNL1        0.2195
      7 C           9.4477   41.1553    8.7992 C.ar    1  UNL1        0.1639
      8 S          12.1040   40.4724    6.3921 S.2     1  UNL1       -0.0111
      9 C           8.7061   40.7513   10.0303 C.3     1  UNL1        0.0606
     10 C           9.6504   40.7044   11.2440 C.3     1  UNL1        0.0076
     11 C           9.5732   41.9906   12.0661 C.3     1  UNL1        0.0004
     12 C           8.1555   42.2257   12.6057 C.3     1  UNL1        0.0000
     13 C           7.0500   41.6763   11.6928 C.3     1  UNL1        0.0004
     14 C           7.4875   41.6634   10.2313 C.3     1  UNL1        0.0076
     15 N          13.1224   38.2022    7.7156 N.am    1  UNL1       -0.2592
     16 C          13.5195   37.4812    8.8906 C.2     1  UNL1        0.2509
     17 O          13.0088   37.7489   10.0119 O.2     1  UNL1       -0.2698
     18 H          13.5326   37.9228    6.8653 H       1  UNL1        0.1571
     19 C          14.5307   36.4140    8.7846 C.ar    1  UNL1        0.0539
     20 C          14.1614   35.0714    8.9443 C.ar    1  UNL1        0.0076
     21 C          15.1183   34.0580    8.8393 C.ar    1  UNL1        0.0370
     22 C          16.4601   34.3748    8.5727 C.ar    1  UNL1        0.1386
     23 C          16.8290   35.7143    8.4140 C.ar    1  UNL1        0.0370
     24 C          15.8717   36.7281    8.5195 C.ar    1  UNL1        0.0076
     25 O          17.4416   33.3830    8.4586 O.3     1  UNL1       -0.4755
     26 C          18.3692   33.0790    9.4952 C.3     1  UNL1        0.2055
     27 C          18.3270   31.5958    9.8157 C.3     1  UNL1        0.0512
@<TRIPOS>BOND
     1     1     2   ar
     2     3     4   ar
     3    15    16   am
     4     5     8   ar
     5     5    15    1
     6     6     8   ar
     7     6     1   ar
     8     7     1   ar
     9     9     7    1
    10     9    10    1
    11    10    11    1
    12    11    12    1
    13    12    13    1
    14    13    14    1
    15    14     9    1
    16    16    19    1
    17    20    21   ar
    18    22    23   ar
    19    22    25    1
    20    24    19   ar
    21    26    25    1
    22    26    27    1
    23     5     2   ar
    24     6     3   ar
    25     7     4   ar
    26    16    17    2
    27    19    20   ar
    28    21    22   ar
    29    23    24   ar
    30    15    18    1
@<TRIPOS>MOLECULE
MolPort-010-852-351 41108820 ChemDiv-G952-3207 MCULE-3308973110 PubChem-52103595 ZINC000041108820
 27 30 0 0 0
SMALL
GASTEIGER

@<TRIPOS>ATOM
      1 N          14.0471   40.7819    9.4250 N.ar    1  UNL1       -0.1881
      2 N          12.9740   41.3894    8.9474 N.ar    1  UNL1       -0.1399
      3 N          15.0291   39.3754   10.8124 N.ar    1  UNL1       -0.1202
      4 N          15.9506   39.8316    9.9539 N.ar    1  UNL1       -0.1310
      5 C          11.8950   41.0272    9.6980 C.ar    1  UNL1        0.1882
      6 C          13.8893   39.9868   10.4470 C.ar    1  UNL1        0.2195
      7 C          15.3377   40.7001    9.1029 C.ar    1  UNL1        0.1639
      8 S          12.2978   39.9111   10.9610 S.2     1  UNL1       -0.0111
      9 C          15.9855   41.3948    7.9511 C.3     1  UNL1        0.0606
     10 C          14.9299   42.0716    7.0598 C.3     1  UNL1        0.0076
     11 C          14.7806   43.5556    7.3935 C.3     1  UNL1        0.0004
     12 C          16.1000   44.3117    7.1846 C.3     1  UNL1        0.0000
     13 C          17.3482   43.4552    7.4413 C.3     1  UNL1        0.0004
     14 C          17.0703   42.3545    8.4605 C.3     1  UNL1        0.0076
     15 N          10.5809   41.5220    9.4118 N.am    1  UNL1       -0.2592
     16 C           9.9808   42.7120    9.9428 C.2     1  UNL1        0.2509
     17 O          10.6290   43.4689   10.7151 O.2     1  UNL1       -0.2698
     18 H          10.0347   40.9916    8.7877 H       1  UNL1        0.1571
     19 C           8.5945   43.0551    9.5777 C.ar    1  UNL1        0.0539
     20 C           7.5999   42.0676    9.5703 C.ar    1  UNL1        0.0076
     21 C           6.2840   42.3925    9.2289 C.ar    1  UNL1        0.0370
     22 C           5.9448   43.7121    8.8896 C.ar    1  UNL1        0.1386
     23 C           6.9371   44.6976    8.8962 C.ar    1  UNL1        0.0370
     24 C           8.2536   44.3724    9.2372 C.ar    1  UNL1        0.0076
     25 O           4.6357   44.0703    8.5461 O.3     1  UNL1       -0.4755
     26 C           4.3168   44.8709    7.4126 C.3     1  UNL1        0.2055
     27 C           2.8461   45.2464    7.4352 C.3     1  UNL1        0.0512
@<TRIPOS>BOND
     1     1     2   ar
     2     3     4   ar
     3    15    16   am
     4     5     8   ar
     5     5    15    1
     6     6     8   ar
     7     6     1   ar
     8     7     1   ar
     9     9     7    1
    10     9    10    1
    11    10    11    1
    12    11    12    1
    13    12    13    1
    14    13    14    1
    15    14     9    1
    16    16    19    1
    17    20    21   ar
    18    22    23   ar
    19    22    25    1
    20    24    19   ar
    21    26    25    1
    22    26    27    1
    23     5     2   ar
    24     6     3   ar
    25     7     4   ar
    26    16    17    2
    27    19    20   ar
    28    21    22   ar
    29    23    24   ar
    30    15    18    1
@<TRIPOS>MOLECULE
MolPort-010-852-351 41108820 ChemDiv-G952-3207 MCULE-3308973110 PubChem-52103595 ZINC000041108820
 27 30 0 0 0
SMALL
GASTEIGER

@<TRIPOS>ATOM
      1 N          13.2001   32.9946    3.3630 N.ar    1  UNL1       -0.1881
      2 N          12.6994   34.0888    3.9115 N.ar    1  UNL1       -0.1399
      3 N          13.0789   31.2874    1.9707 N.ar    1  UNL1       -0.1202
      4 N          14.2955   31.2874    2.5313 N.ar    1  UNL1       -0.1310
      5 C          11.4348   34.2770    3.4379 C.ar    1  UNL1        0.1882
      6 C          12.4528   32.3459    2.5131 C.ar    1  UNL1        0.2195
      7 C          14.3617   32.3419    3.3903 C.ar    1  UNL1        0.1639
      8 S          10.9552   33.0627    2.2983 S.2     1  UNL1       -0.0111
      9 C          15.5609   32.7470    4.1818 C.3     1  UNL1        0.0606
     10 C          16.0644   34.1312    3.7374 C.3     1  UNL1        0.0076
     11 C          15.5444   35.2390    4.6530 C.3     1  UNL1        0.0004
     12 C          16.0097   35.0326    6.1012 C.3     1  UNL1        0.0000
     13 C          16.1847   33.5570    6.4876 C.3     1  UNL1        0.0004
     14 C          15.2538   32.6547    5.6833 C.3     1  UNL1        0.0076
     15 N          10.6381   35.3953    3.8478 N.am    1  UNL1       -0.2592
     16 C          11.0169   36.7782    3.8009 C.2     1  UNL1        0.2509
     17 O          12.1337   37.1228    3.3278 O.2     1  UNL1       -0.2698
     18 H           9.7398   35.1943    4.1970 H       1  UNL1        0.1571
     19 C          10.0893   37.8062    4.3064 C.ar    1  UNL1        0.0539
     20 C           9.4426   37.6314    5.5375 C.ar    1  UNL1        0.0076
     21 C           8.5664   38.6076    6.0204 C.ar    1  UNL1        0.0370
     22 C           8.3248   39.7738    5.2765 C.ar    1  UNL1        0.1386
     23 C           8.9693   39.9482    4.0477 C.ar    1  UNL1        0.0370
     24 C           9.8456   38.9714    3.5646 C.ar    1  UNL1        0.0076
     25 O           7.4554   40.7714    5.7338 O.3     1  UNL1       -0.4755
     26 C           7.9000   42.0406    6.2016 C.3     1  UNL1        0.2055
     27 C           9.1385   41.8753    7.0635 C.3     1  UNL1        0.0512
@<TRIPOS>BOND
     1     1     2   ar
     2     3     4   ar
     3    15    16   am
     4     5     8   ar
     5     5    15    1
     6     6     8   ar
     7     6     1   ar
     8     7     1   ar
     9     9     7    1
    10     9    10    1
    11    10    11    1
    12    11    12    1
    13    12    13    1
    14    13    14    1
    15    14     9    1
    16    16    19    1
    17    20    21   ar
    18    22    23   ar
    19    22    25    1
    20    24    19   ar
    21    26    25    1
    22    26    27    1
    23     5     2   ar
    24     6     3   ar
    25     7     4   ar
    26    16    17    2
    27    19    20   ar
    28    21    22   ar
    29    23    24   ar
    30    15    18    1
@<TRIPOS>MOLECULE
MolPort-010-852-351 41108820 ChemDiv-G952-3207 MCULE-3308973110 PubChem-52103595 ZINC000041108820
 27 30 0 0 0
SMALL
GASTEIGER

@<TRIPOS>ATOM
      1 N           3.7512   42.0127   10.4212 N.ar    1  UNL1       -0.1881
      2 N           4.6363   42.0651    9.4401 N.ar    1  UNL1       -0.1399
      3 N           2.0299   42.8313   11.5325 N.ar    1  UNL1       -0.1202
      4 N           2.3340   41.6340   12.0504 N.ar    1  UNL1       -0.1310
      5 C           4.4703   43.2364    8.7623 C.ar    1  UNL1        0.1882
      6 C           2.9240   43.0137   10.5457 C.ar    1  UNL1        0.2195
      7 C           3.3979   41.1366   11.3612 C.ar    1  UNL1        0.1639
      8 S           3.1780   44.2025    9.3946 S.2     1  UNL1       -0.0111
      9 C           4.0245   39.7982   11.5729 C.3     1  UNL1        0.0606
     10 C           5.5407   39.8607   11.3199 C.3     1  UNL1        0.0076
     11 C           6.3218   40.0217   12.6237 C.3     1  UNL1        0.0004
     12 C           6.0709   38.8439   13.5756 C.3     1  UNL1        0.0000
     13 C           4.6711   38.2282   13.4381 C.3     1  UNL1        0.0004
     14 C           3.6521   39.2585   12.9612 C.3     1  UNL1        0.0076
     15 N           5.2852   43.5722    7.6325 N.am    1  UNL1       -0.2592
     16 C           6.6291   43.1341    7.3870 C.2     1  UNL1        0.2509
     17 O           7.2020   42.3415    8.1827 O.2     1  UNL1       -0.2698
     18 H           4.8821   44.1635    6.9563 H       1  UNL1        0.1571
     19 C           7.3448   43.6117    6.1902 C.ar    1  UNL1        0.0539
     20 C           8.5316   42.9889    5.7803 C.ar    1  UNL1        0.0076
     21 C           9.2088   43.4376    4.6428 C.ar    1  UNL1        0.0370
     22 C           8.7069   44.5176    3.8989 C.ar    1  UNL1        0.1386
     23 C           7.5231   45.1397    4.3079 C.ar    1  UNL1        0.0370
     24 C           6.8459   44.6910    5.4461 C.ar    1  UNL1        0.0076
     25 O           9.3597   44.9888    2.7535 O.3     1  UNL1       -0.4755
     26 C           9.1618   46.2954    2.2233 C.3     1  UNL1        0.2055
     27 C           8.1713   47.0625    3.0805 C.3     1  UNL1        0.0512
@<TRIPOS>BOND
     1     1     2   ar
     2     3     4   ar
     3    15    16   am
     4     5     8   ar
     5     5    15    1
     6     6     8   ar
     7     6     1   ar
     8     7     1   ar
     9     9     7    1
    10     9    10    1
    11    10    11    1
    12    11    12    1
    13    12    13    1
    14    13    14    1
    15    14     9    1
    16    16    19    1
    17    20    21   ar
    18    22    23   ar
    19    22    25    1
    20    24    19   ar
    21    26    25    1
    22    26    27    1
    23     5     2   ar
    24     6     3   ar
    25     7     4   ar
    26    16    17    2
    27    19    20   ar
    28    21    22   ar
    29    23    24   ar
    30    15    18    1
