@<TRIPOS>MOLECULE
MolPort-001-908-547 2968747 CHEMBL1883492 CSSS00160004050 MCULE-8852134729 PubChem-2274529 ZINC000002968747 ZINC02968747
 23 24 0 0 0
SMALL
GASTEIGER

@<TRIPOS>ATOM
      1 C          10.9169   41.3927    7.6765 C.2     1  UNL1        0.2375
      2 O          11.0738   42.2755    8.5610 O.2     1  UNL1       -0.2738
      3 N           9.6414   41.1759    7.0590 N.am    1  UNL1       -0.2831
      4 H           9.5932   40.4598    6.3852 H       1  UNL1        0.1549
      5 C           6.7210   42.5601    8.9205 C.ar    1  UNL1        0.1398
      6 C           6.0579   43.2715    7.9081 C.ar    1  UNL1        0.0370
      7 C           6.5751   43.2949    6.6109 C.ar    1  UNL1        0.0044
      8 C           7.7562   42.6086    6.3185 C.ar    1  UNL1        0.0149
      9 C           8.4285   41.8946    7.3215 C.ar    1  UNL1        0.0534
     10 C           7.9030   41.8759    8.6180 C.ar    1  UNL1        0.0515
     11 O           6.2294   42.5155   10.2278 O.3     1  UNL1       -0.4754
     12 C           6.2711   41.3385   11.0255 C.3     1  UNL1        0.2054
     13 C           4.8607   40.8779   11.3593 C.3     1  UNL1        0.0473
     14 C           2.7776   41.8080   10.3443 C.3     1  UNL1        0.0001
     15 C           3.8853   42.0440   11.3535 C.3     1  UNL1        0.0038
     16 C          12.0838   40.5721    7.2505 C.3     1  UNL1        0.1492
     17 S          13.3735   40.5899    8.5337 S.3     1  UNL1       -0.0768
     18 C          14.3640   41.8013    7.6676 C.ar    1  UNL1        0.1596
     19 C          16.0010   43.3140    6.8012 C.ar    1  UNL1        0.1120
     20 C          17.1740   44.1616    6.4639 C.3     1  UNL1        0.0614
     21 N          13.9302   42.4910    6.5907 N.ar    1  UNL1       -0.1347
     22 N          14.8417   43.3343    6.1091 N.ar    1  UNL1       -0.1448
     23 S          15.9433   42.2163    8.0763 S.2     1  UNL1       -0.0435
@<TRIPOS>BOND
     1    14    15    1
     2    15    13    1
     3    13    12    1
     4    12    11    1
     5     5    11    1
     6     6     7   ar
     7     8     9   ar
     8     9     3    1
     9    16     1    1
    10    16    17    1
    11    18    17    1
    12    18    23   ar
    13    19    23   ar
    14    20    19    1
    15    10     5   ar
    16     3     1   am
    17    21    22   ar
    18     5     6   ar
    19     7     8   ar
    20     9    10   ar
    21     1     2    2
    22    18    21   ar
    23    19    22   ar
    24     3     4    1
@<TRIPOS>MOLECULE
MolPort-001-908-547 2968747 CHEMBL1883492 CSSS00160004050 MCULE-8852134729 PubChem-2274529 ZINC000002968747 ZINC02968747
 23 24 0 0 0
SMALL
GASTEIGER

@<TRIPOS>ATOM
      1 C           9.7275   42.9212    9.7528 C.2     1  UNL1        0.2375
      2 O          10.4531   43.8911   10.0978 O.2     1  UNL1       -0.2738
      3 N          10.2969   41.7165    9.2242 N.am    1  UNL1       -0.2831
      4 H           9.6658   41.0068    8.9647 H       1  UNL1        0.1549
      5 C          13.6886   41.7052    7.6731 C.ar    1  UNL1        0.1398
      6 C          14.4128   40.9314    8.5937 C.ar    1  UNL1        0.0370
      7 C          13.7816   40.4137    9.7271 C.ar    1  UNL1        0.0044
      8 C          12.4252   40.6661    9.9465 C.ar    1  UNL1        0.0149
      9 C          11.6908   41.4384    9.0343 C.ar    1  UNL1        0.0534
     10 C          12.3309   41.9525    7.9014 C.ar    1  UNL1        0.0515
     11 O          14.2897   42.2365    6.5288 O.3     1  UNL1       -0.4754
     12 C          13.9734   43.5276    6.0228 C.3     1  UNL1        0.2054
     13 C          15.2231   44.2002    5.4762 C.3     1  UNL1        0.0473
     14 C          17.5524   43.8423    6.3016 C.3     1  UNL1        0.0001
     15 C          16.2163   44.5015    6.5871 C.3     1  UNL1        0.0038
     16 C           8.2510   43.0212    9.9159 C.3     1  UNL1        0.1492
     17 S           7.5503   44.1461    8.6694 S.3     1  UNL1       -0.0768
     18 C           5.8948   43.4978    8.8646 C.ar    1  UNL1        0.1596
     19 C           3.8836   42.2430    9.1793 C.ar    1  UNL1        0.1120
     20 C           2.7993   41.2501    9.3949 C.3     1  UNL1        0.0614
     21 N           4.7824   44.2622    8.8259 N.ar    1  UNL1       -0.1347
     22 N           3.6622   43.5630    9.0000 N.ar    1  UNL1       -0.1448
     23 S           5.5261   41.8768    9.1292 S.2     1  UNL1       -0.0435
@<TRIPOS>BOND
     1    14    15    1
     2    15    13    1
     3    13    12    1
     4    12    11    1
     5     5    11    1
     6     6     7   ar
     7     8     9   ar
     8     9     3    1
     9    16     1    1
    10    16    17    1
    11    18    17    1
    12    18    23   ar
    13    19    23   ar
    14    20    19    1
    15    10     5   ar
    16     3     1   am
    17    21    22   ar
    18     5     6   ar
    19     7     8   ar
    20     9    10   ar
    21     1     2    2
    22    18    21   ar
    23    19    22   ar
    24     3     4    1
@<TRIPOS>MOLECULE
MolPort-001-908-547 2968747 CHEMBL1883492 CSSS00160004050 MCULE-8852134729 PubChem-2274529 ZINC000002968747 ZINC02968747
 23 24 0 0 0
SMALL
GASTEIGER

@<TRIPOS>ATOM
      1 C           9.9915   42.7675   10.1129 C.2     1  UNL1        0.2375
      2 O          10.7515   43.7584   10.2766 O.2     1  UNL1       -0.2738
      3 N          10.5147   41.4743    9.7830 N.am    1  UNL1       -0.2831
      4 H           9.8583   40.7512    9.6582 H       1  UNL1        0.1549
      5 C          13.9359   41.3171    8.3063 C.ar    1  UNL1        0.1398
      6 C          14.5954   40.4811    9.2211 C.ar    1  UNL1        0.0370
      7 C          13.9110   39.9697   10.3260 C.ar    1  UNL1        0.0044
      8 C          12.5656   40.2904   10.5227 C.ar    1  UNL1        0.0149
      9 C          11.8955   41.1252    9.6161 C.ar    1  UNL1        0.0534
     10 C          12.5886   41.6325    8.5117 C.ar    1  UNL1        0.0515
     11 O          14.5913   41.8440    7.1903 O.3     1  UNL1       -0.4754
     12 C          13.9459   42.6930    6.2491 C.3     1  UNL1        0.2054
     13 C          14.7994   43.9216    5.9754 C.3     1  UNL1        0.0473
     14 C          17.2869   44.0277    6.1661 C.3     1  UNL1        0.0001
     15 C          15.9783   43.9968    6.9326 C.3     1  UNL1        0.0038
     16 C           8.5226   42.9392   10.2850 C.3     1  UNL1        0.1492
     17 S           7.8781   44.1347    9.0743 S.3     1  UNL1       -0.0768
     18 C           7.4529   42.8633    7.8904 C.ar    1  UNL1        0.1596
     19 C           6.8599   40.9002    6.6602 C.ar    1  UNL1        0.1120
     20 C           6.4951   39.5580    6.1372 C.3     1  UNL1        0.0614
     21 N           7.3339   43.0856    6.5638 N.ar    1  UNL1       -0.1347
     22 N           7.0048   41.9918    5.8787 N.ar    1  UNL1       -0.1448
     23 S           7.1409   41.2561    8.2816 S.2     1  UNL1       -0.0435
@<TRIPOS>BOND
     1    14    15    1
     2    15    13    1
     3    13    12    1
     4    12    11    1
     5     5    11    1
     6     6     7   ar
     7     8     9   ar
     8     9     3    1
     9    16     1    1
    10    16    17    1
    11    18    17    1
    12    18    23   ar
    13    19    23   ar
    14    20    19    1
    15    10     5   ar
    16     3     1   am
    17    21    22   ar
    18     5     6   ar
    19     7     8   ar
    20     9    10   ar
    21     1     2    2
    22    18    21   ar
    23    19    22   ar
    24     3     4    1
@<TRIPOS>MOLECULE
MolPort-001-908-547 2968747 CHEMBL1883492 CSSS00160004050 MCULE-8852134729 PubChem-2274529 ZINC000002968747 ZINC02968747
 23 24 0 0 0
SMALL
GASTEIGER

@<TRIPOS>ATOM
      1 C          16.5203   39.9471   10.0432 C.2     1  UNL1        0.2375
      2 O          16.7287   40.6992    9.0547 O.2     1  UNL1       -0.2738
      3 N          15.1953   39.7244   10.5430 N.am    1  UNL1       -0.2831
      4 H          15.1124   39.1340   11.3265 H       1  UNL1        0.1549
      5 C          12.8553   41.5022    8.2466 C.ar    1  UNL1        0.1398
      6 C          11.6393   41.3764    8.9368 C.ar    1  UNL1        0.0370
      7 C          11.5915   40.7041   10.1601 C.ar    1  UNL1        0.0044
      8 C          12.7570   40.1544   10.6998 C.ar    1  UNL1        0.0149
      9 C          13.9781   40.2729   10.0195 C.ar    1  UNL1        0.0534
     10 C          14.0169   40.9485    8.7950 C.ar    1  UNL1        0.0515
     11 O          12.9374   42.1697    7.0217 O.3     1  UNL1       -0.4754
     12 C          14.1769   42.5164    6.4162 C.3     1  UNL1        0.2054
     13 C          14.2476   44.0173    6.1819 C.3     1  UNL1        0.0473
     14 C          16.4623   44.1277    7.3299 C.3     1  UNL1        0.0001
     15 C          15.6885   44.4905    6.0766 C.3     1  UNL1        0.0038
     16 C          17.6710   39.2608   10.6924 C.3     1  UNL1        0.1492
     17 S          17.9050   37.6034    9.9791 S.3     1  UNL1       -0.0768
     18 C          16.2475   37.0767   10.3961 C.ar    1  UNL1        0.1596
     19 C          13.9971   36.2779   10.5245 C.ar    1  UNL1        0.1120
     20 C          12.6224   35.7459   10.3370 C.3     1  UNL1        0.0614
     21 N          15.7472   37.1025   11.6501 N.ar    1  UNL1       -0.1347
     22 N          14.4935   36.6587   11.7212 N.ar    1  UNL1       -0.1448
     23 S          15.1257   36.4804    9.2918 S.2     1  UNL1       -0.0435
@<TRIPOS>BOND
     1    14    15    1
     2    15    13    1
     3    13    12    1
     4    12    11    1
     5     5    11    1
     6     6     7   ar
     7     8     9   ar
     8     9     3    1
     9    16     1    1
    10    16    17    1
    11    18    17    1
    12    18    23   ar
    13    19    23   ar
    14    20    19    1
    15    10     5   ar
    16     3     1   am
    17    21    22   ar
    18     5     6   ar
    19     7     8   ar
    20     9    10   ar
    21     1     2    2
    22    18    21   ar
    23    19    22   ar
    24     3     4    1
@<TRIPOS>MOLECULE
MolPort-001-908-547 2968747 CHEMBL1883492 CSSS00160004050 MCULE-8852134729 PubChem-2274529 ZINC000002968747 ZINC02968747
 23 24 0 0 0
SMALL
GASTEIGER

@<TRIPOS>ATOM
      1 C          10.4934   41.7126    8.9544 C.2     1  UNL1        0.2375
      2 O          10.5621   42.9006    9.3669 O.2     1  UNL1       -0.2738
      3 N           9.3556   41.2446    8.2185 N.am    1  UNL1       -0.2831
      4 H           9.3678   40.3003    7.9401 H       1  UNL1        0.1549
      5 C           6.0656   42.9804    8.4874 C.ar    1  UNL1        0.1398
      6 C           5.9144   43.4925    7.1891 C.ar    1  UNL1        0.0370
      7 C           6.8990   43.2654    6.2248 C.ar    1  UNL1        0.0044
      8 C           8.0385   42.5264    6.5521 C.ar    1  UNL1        0.0149
      9 C           8.2014   42.0099    7.8461 C.ar    1  UNL1        0.0534
     10 C           7.2099   42.2416    8.8057 C.ar    1  UNL1        0.0515
     11 O           5.0987   43.1884    9.4747 O.3     1  UNL1       -0.4754
     12 C           3.7042   43.0618    9.2245 C.3     1  UNL1        0.2054
     13 C           3.0576   42.1774   10.2792 C.3     1  UNL1        0.0473
     14 C           4.0814   40.2322   11.4636 C.3     1  UNL1        0.0001
     15 C           3.5205   40.7353   10.1471 C.3     1  UNL1        0.0038
     16 C          11.6251   40.7823    9.2195 C.3     1  UNL1        0.1492
     17 S          11.5476   40.1604   10.9276 S.3     1  UNL1       -0.0768
     18 C          13.2770   39.7050   10.9500 C.ar    1  UNL1        0.1596
     19 C          15.6109   39.3184   10.6000 C.ar    1  UNL1        0.1120
     20 C          17.0244   39.2171   10.1531 C.3     1  UNL1        0.0614
     21 N          13.8515   38.9964   11.9457 N.ar    1  UNL1       -0.1347
     22 N          15.1511   38.7802   11.7499 N.ar    1  UNL1       -0.1448
     23 S          14.3895   40.1094    9.7532 S.2     1  UNL1       -0.0435
@<TRIPOS>BOND
     1    14    15    1
     2    15    13    1
     3    13    12    1
     4    12    11    1
     5     5    11    1
     6     6     7   ar
     7     8     9   ar
     8     9     3    1
     9    16     1    1
    10    16    17    1
    11    18    17    1
    12    18    23   ar
    13    19    23   ar
    14    20    19    1
    15    10     5   ar
    16     3     1   am
    17    21    22   ar
    18     5     6   ar
    19     7     8   ar
    20     9    10   ar
    21     1     2    2
    22    18    21   ar
    23    19    22   ar
    24     3     4    1
@<TRIPOS>MOLECULE
MolPort-001-908-547 2968747 CHEMBL1883492 CSSS00160004050 MCULE-8852134729 PubChem-2274529 ZINC000002968747 ZINC02968747
 23 24 0 0 0
SMALL
GASTEIGER

@<TRIPOS>ATOM
      1 C           9.7639   42.9721    9.8286 C.2     1  UNL1        0.2375
      2 O          10.5237   43.8911   10.2340 O.2     1  UNL1       -0.2738
      3 N          10.2911   41.7688    9.2550 N.am    1  UNL1       -0.2831
      4 H           9.6353   41.1012    8.9492 H       1  UNL1        0.1549
      5 C          13.6553   40.3046    9.9245 C.ar    1  UNL1        0.1398
      6 C          14.3808   40.7535    8.8097 C.ar    1  UNL1        0.0370
      7 C          13.7593   41.5391    7.8364 C.ar    1  UNL1        0.0044
      8 C          12.4113   41.8800    7.9715 C.ar    1  UNL1        0.0149
      9 C          11.6753   41.4371    9.0805 C.ar    1  UNL1        0.0534
     10 C          12.3060   40.6511   10.0511 C.ar    1  UNL1        0.0515
     11 O          14.2475   39.5184   10.9166 O.3     1  UNL1       -0.4754
     12 C          14.6984   38.1905   10.6786 C.3     1  UNL1        0.2054
     13 C          13.8375   37.1968   11.4429 C.3     1  UNL1        0.0473
     14 C          11.8276   36.9406    9.9837 C.3     1  UNL1        0.0001
     15 C          13.0901   36.2729   10.4946 C.3     1  UNL1        0.0038
     16 C           8.2900   43.1310    9.9662 C.3     1  UNL1        0.1492
     17 S           7.6142   44.0366    8.5401 S.3     1  UNL1       -0.0768
     18 C           5.9496   43.4465    8.8228 C.ar    1  UNL1        0.1596
     19 C           3.9165   42.2652    9.2580 C.ar    1  UNL1        0.1120
     20 C           2.8128   41.3136    9.5484 C.3     1  UNL1        0.0614
     21 N           4.8600   44.2439    8.8061 N.ar    1  UNL1       -0.1347
     22 N           3.7276   43.5856    9.0473 N.ar    1  UNL1       -0.1448
     23 S           5.5437   41.8464    9.1521 S.2     1  UNL1       -0.0435
@<TRIPOS>BOND
     1    14    15    1
     2    15    13    1
     3    13    12    1
     4    12    11    1
     5     5    11    1
     6     6     7   ar
     7     8     9   ar
     8     9     3    1
     9    16     1    1
    10    16    17    1
    11    18    17    1
    12    18    23   ar
    13    19    23   ar
    14    20    19    1
    15    10     5   ar
    16     3     1   am
    17    21    22   ar
    18     5     6   ar
    19     7     8   ar
    20     9    10   ar
    21     1     2    2
    22    18    21   ar
    23    19    22   ar
    24     3     4    1
@<TRIPOS>MOLECULE
MolPort-001-908-547 2968747 CHEMBL1883492 CSSS00160004050 MCULE-8852134729 PubChem-2274529 ZINC000002968747 ZINC02968747
 23 24 0 0 0
SMALL
GASTEIGER

@<TRIPOS>ATOM
      1 C          10.2899   42.8907    9.5524 C.2     1  UNL1        0.2375
      2 O          10.9934   43.7848   10.0929 O.2     1  UNL1       -0.2738
      3 N          10.8111   42.0676    8.5007 N.am    1  UNL1       -0.2831
      4 H          10.1980   41.3988    8.1186 H       1  UNL1        0.1549
      5 C          14.4490   41.3815    8.0485 C.ar    1  UNL1        0.1398
      6 C          14.7435   42.1713    6.9260 C.ar    1  UNL1        0.0370
      7 C          13.7409   42.9300    6.3176 C.ar    1  UNL1        0.0044
      8 C          12.4404   42.9037    6.8270 C.ar    1  UNL1        0.0149
      9 C          12.1333   42.1180    7.9479 C.ar    1  UNL1        0.0534
     10 C          13.1438   41.3617    8.5513 C.ar    1  UNL1        0.0515
     11 O          15.4292   40.6121    8.6811 O.3     1  UNL1       -0.4754
     12 C          16.4739   41.1848    9.4581 C.3     1  UNL1        0.2054
     13 C          17.5175   41.8194    8.5519 C.3     1  UNL1        0.0473
     14 C          17.8512   44.0279    7.4356 C.3     1  UNL1        0.0001
     15 C          17.5771   43.3253    8.7518 C.3     1  UNL1        0.0038
     16 C           8.8966   42.6719   10.0291 C.3     1  UNL1        0.1492
     17 S           8.0600   41.4312    8.9941 S.3     1  UNL1       -0.0768
     18 C           6.5207   41.5667    9.8947 C.ar    1  UNL1        0.1596
     19 C           4.2904   41.8559   10.7076 C.ar    1  UNL1        0.1120
     20 C           2.8465   42.1021   10.9570 C.3     1  UNL1        0.0614
     21 N           6.4012   41.3109   11.2151 N.ar    1  UNL1       -0.1347
     22 N           5.1592   41.4732   11.6680 N.ar    1  UNL1       -0.1448
     23 S           5.0479   42.0125    9.2123 S.2     1  UNL1       -0.0435
@<TRIPOS>BOND
     1    14    15    1
     2    15    13    1
     3    13    12    1
     4    12    11    1
     5     5    11    1
     6     6     7   ar
     7     8     9   ar
     8     9     3    1
     9    16     1    1
    10    16    17    1
    11    18    17    1
    12    18    23   ar
    13    19    23   ar
    14    20    19    1
    15    10     5   ar
    16     3     1   am
    17    21    22   ar
    18     5     6   ar
    19     7     8   ar
    20     9    10   ar
    21     1     2    2
    22    18    21   ar
    23    19    22   ar
    24     3     4    1
@<TRIPOS>MOLECULE
MolPort-001-908-547 2968747 CHEMBL1883492 CSSS00160004050 MCULE-8852134729 PubChem-2274529 ZINC000002968747 ZINC02968747
 23 24 0 0 0
SMALL
GASTEIGER

@<TRIPOS>ATOM
      1 C           7.6839   43.0513    8.1115 C.2     1  UNL1        0.2375
      2 O           8.1609   44.0517    8.7098 O.2     1  UNL1       -0.2738
      3 N           8.3247   41.7705    8.1750 N.am    1  UNL1       -0.2831
      4 H           7.9000   41.0390    7.6713 H       1  UNL1        0.1549
      5 C          11.8934   40.9147    8.8397 C.ar    1  UNL1        0.1398
      6 C          11.8957   40.7994   10.2388 C.ar    1  UNL1        0.0370
      7 C          10.7193   41.0049   10.9631 C.ar    1  UNL1        0.0044
      8 C           9.5356   41.3262   10.2942 C.ar    1  UNL1        0.0149
      9 C           9.5205   41.4449    8.8966 C.ar    1  UNL1        0.0534
     10 C          10.7033   41.2368    8.1789 C.ar    1  UNL1        0.0515
     11 O          13.0527   40.7142    8.0856 O.3     1  UNL1       -0.4754
     12 C          14.1996   41.5475    8.2018 C.3     1  UNL1        0.2054
     13 C          14.5293   42.1805    6.8589 C.3     1  UNL1        0.0473
     14 C          14.4927   44.3587    5.6386 C.3     1  UNL1        0.0001
     15 C          13.7973   43.5007    6.6784 C.3     1  UNL1        0.0038
     16 C           6.4194   43.1981    7.3395 C.3     1  UNL1        0.1492
     17 S           5.3125   44.3887    8.1567 S.3     1  UNL1       -0.0768
     18 C           4.4879   43.1227    9.1137 C.ar    1  UNL1        0.1596
     19 C           3.7928   41.3130   10.5139 C.ar    1  UNL1        0.1120
     20 C           3.6258   40.1502   11.4238 C.3     1  UNL1        0.0614
     21 N           3.1460   42.9842    9.1727 N.ar    1  UNL1       -0.1347
     22 N           2.7591   41.9754    9.9517 N.ar    1  UNL1       -0.1448
     23 S           5.2736   41.9704   10.0563 S.2     1  UNL1       -0.0435
@<TRIPOS>BOND
     1    14    15    1
     2    15    13    1
     3    13    12    1
     4    12    11    1
     5     5    11    1
     6     6     7   ar
     7     8     9   ar
     8     9     3    1
     9    16     1    1
    10    16    17    1
    11    18    17    1
    12    18    23   ar
    13    19    23   ar
    14    20    19    1
    15    10     5   ar
    16     3     1   am
    17    21    22   ar
    18     5     6   ar
    19     7     8   ar
    20     9    10   ar
    21     1     2    2
    22    18    21   ar
    23    19    22   ar
    24     3     4    1
@<TRIPOS>MOLECULE
MolPort-001-908-547 2968747 CHEMBL1883492 CSSS00160004050 MCULE-8852134729 PubChem-2274529 ZINC000002968747 ZINC02968747
 23 24 0 0 0
SMALL
GASTEIGER

@<TRIPOS>ATOM
      1 C           8.1754   41.5771   11.6472 C.2     1  UNL1        0.2375
      2 O           7.8177   42.1908   12.6873 O.2     1  UNL1       -0.2738
      3 N           7.2304   41.2249   10.6284 N.am    1  UNL1       -0.2831
      4 H           7.5822   40.7349    9.8504 H       1  UNL1        0.1549
      5 C           3.9698   42.7611    9.6699 C.ar    1  UNL1        0.1398
      6 C           3.0916   42.1308   10.5656 C.ar    1  UNL1        0.0370
      7 C           3.5756   41.1980   11.4856 C.ar    1  UNL1        0.0044
      8 C           4.9379   40.8903   11.5157 C.ar    1  UNL1        0.0149
      9 C           5.8256   41.5129   10.6256 C.ar    1  UNL1        0.0534
     10 C           5.3323   42.4465    9.7077 C.ar    1  UNL1        0.0515
     11 O           3.5181   43.6996    8.7383 O.3     1  UNL1       -0.4754
     12 C           4.3807   44.3237    7.7950 C.3     1  UNL1        0.2054
     13 C           5.6406   44.8246    8.4839 C.3     1  UNL1        0.0473
     14 C           6.5216   43.6013    6.4934 C.3     1  UNL1        0.0001
     15 C           6.8836   44.4685    7.6842 C.3     1  UNL1        0.0038
     16 C           9.6112   41.2282   11.4641 C.3     1  UNL1        0.1492
     17 S          10.0721   41.3420    9.7077 S.3     1  UNL1       -0.0768
     18 C          11.7388   40.7632   10.0009 C.ar    1  UNL1        0.1596
     19 C          14.0523   40.1578    9.9945 C.ar    1  UNL1        0.1120
     20 C          15.4925   39.8919    9.7434 C.3     1  UNL1        0.0614
     21 N          12.1284   40.1488   11.1385 N.ar    1  UNL1       -0.1347
     22 N          13.4167   39.8106   11.1342 N.ar    1  UNL1       -0.1448
     23 S          13.0132   40.9222    8.9127 S.2     1  UNL1       -0.0435
@<TRIPOS>BOND
     1    14    15    1
     2    15    13    1
     3    13    12    1
     4    12    11    1
     5     5    11    1
     6     6     7   ar
     7     8     9   ar
     8     9     3    1
     9    16     1    1
    10    16    17    1
    11    18    17    1
    12    18    23   ar
    13    19    23   ar
    14    20    19    1
    15    10     5   ar
    16     3     1   am
    17    21    22   ar
    18     5     6   ar
    19     7     8   ar
    20     9    10   ar
    21     1     2    2
    22    18    21   ar
    23    19    22   ar
    24     3     4    1
@<TRIPOS>MOLECULE
MolPort-001-908-547 2968747 CHEMBL1883492 CSSS00160004050 MCULE-8852134729 PubChem-2274529 ZINC000002968747 ZINC02968747
 23 24 0 0 0
SMALL
GASTEIGER

@<TRIPOS>ATOM
      1 C           9.9961   42.7230   10.1414 C.2     1  UNL1        0.2375
      2 O          10.7827   43.6908   10.3172 O.2     1  UNL1       -0.2738
      3 N          10.4873   41.4057    9.8612 N.am    1  UNL1       -0.2831
      4 H           9.8119   40.7028    9.7232 H       1  UNL1        0.1549
      5 C          13.7594   39.8540   10.7528 C.ar    1  UNL1        0.1398
      6 C          14.5417   40.1949    9.6381 C.ar    1  UNL1        0.0370
      7 C          13.9888   40.9364    8.5915 C.ar    1  UNL1        0.0044
      8 C          12.6531   41.3409    8.6530 C.ar    1  UNL1        0.0149
      9 C          11.8609   41.0061    9.7612 C.ar    1  UNL1        0.0534
     10 C          12.4230   40.2636   10.8053 C.ar    1  UNL1        0.0515
     11 O          14.2824   39.1145   11.8169 O.3     1  UNL1       -0.4754
     12 C          14.7764   37.7894   11.6633 C.3     1  UNL1        0.2054
     13 C          13.6485   36.8490   11.2682 C.3     1  UNL1        0.0473
     14 C          13.3279   34.9083    9.7300 C.3     1  UNL1        0.0001
     15 C          13.8332   36.3336    9.8499 C.3     1  UNL1        0.0038
     16 C           8.5282   42.9484   10.2464 C.3     1  UNL1        0.1492
     17 S           7.9783   44.1406    8.9868 S.3     1  UNL1       -0.0768
     18 C           7.5177   42.8597    7.8266 C.ar    1  UNL1        0.1596
     19 C           6.8536   40.8958    6.6345 C.ar    1  UNL1        0.1120
     20 C           6.4313   39.5603    6.1384 C.3     1  UNL1        0.0614
     21 N           7.4475   43.0492    6.4915 N.ar    1  UNL1       -0.1347
     22 N           7.0787   41.9550    5.8276 N.ar    1  UNL1       -0.1448
     23 S           7.1086   41.2834    8.2529 S.2     1  UNL1       -0.0435
@<TRIPOS>BOND
     1    14    15    1
     2    15    13    1
     3    13    12    1
     4    12    11    1
     5     5    11    1
     6     6     7   ar
     7     8     9   ar
     8     9     3    1
     9    16     1    1
    10    16    17    1
    11    18    17    1
    12    18    23   ar
    13    19    23   ar
    14    20    19    1
    15    10     5   ar
    16     3     1   am
    17    21    22   ar
    18     5     6   ar
    19     7     8   ar
    20     9    10   ar
    21     1     2    2
    22    18    21   ar
    23    19    22   ar
    24     3     4    1
