@<TRIPOS>MOLECULE
Molport-020-292-986 MCULE-4586714194 PubChem-110265453
 26 28 0 0 0
SMALL
GASTEIGER

@<TRIPOS>ATOM
      1 C          10.4257   41.2685    6.0403 C.ar    1  UNL1        0.1339
      2 C          10.5474   39.8804    6.1893 C.ar    1  UNL1        0.0345
      3 C           9.4286   39.1235    6.5385 C.ar    1  UNL1        0.0041
      4 C           8.1995   39.7521    6.7362 C.ar    1  UNL1        0.0149
      5 C           8.1066   41.1410    6.5765 C.ar    1  UNL1        0.0614
      6 N           9.2135   41.8562    6.2363 N.ar    1  UNL1       -0.2348
      7 C           6.8112   41.8574    6.7896 C.3     1  UNL1        0.0563
      8 C           7.0086   43.3750    6.7012 C.3     1  UNL1        0.0087
      9 C           5.7938   44.1166    7.2569 C.3     1  UNL1        0.0178
     10 C           5.3818   43.6057    8.6481 C.3     1  UNL1        0.0721
     11 C           6.1409   41.4226    8.1031 C.3     1  UNL1        0.0780
     12 N           6.2131   42.4880    9.1036 N.3     1  UNL1       -0.2723
     13 C           5.5994   41.9786   10.3196 C.3     1  UNL1        0.0721
     14 C           4.3318   41.2050    9.9909 C.3     1  UNL1        0.0160
     15 C           3.1660   42.1664    9.9184 C.3     1  UNL1        0.0014
     16 C           4.0557   40.1727   11.0673 C.3     1  UNL1        0.0014
     17 N          11.5434   42.0929    5.6800 N.pl3   1  UNL1       -0.2680
     18 H          11.4211   42.6732    4.8941 H       1  UNL1        0.1565
     19 C          15.8812   44.2715    6.0743 C.3     1  UNL1        0.0522
     20 C          14.9253   43.2290    6.5297 C.ar    1  UNL1        0.0634
     21 C          15.2758   42.3676    7.5675 C.ar    1  UNL1        0.0296
     22 C          14.3519   41.4036    7.9660 C.ar    1  UNL1        0.0634
     23 C          12.8181   42.1691    6.3324 C.ar    1  UNL1        0.2211
     24 C          14.6857   40.4641    9.0680 C.3     1  UNL1        0.0522
     25 N          13.1466   41.3209    7.3454 N.ar    1  UNL1       -0.2179
     26 N          13.7092   43.1160    5.9347 N.ar    1  UNL1       -0.2179
@<TRIPOS>BOND
     1    19    20    1
     2    20    26   ar
     3    21    22   ar
     4    23    25   ar
     5    23    17    1
     6     1     6   ar
     7     2     3   ar
     8     4     5   ar
     9     7     5    1
    10     7     8    1
    11     8     9    1
    12     9    10    1
    13    10    12    1
    14    11    12    1
    15    11     7    1
    16    13    12    1
    17    13    14    1
    18    14    15    1
    19    14    16    1
    20    24    22    1
    21    17     1    1
    22    20    21   ar
    23    22    25   ar
    24    23    26   ar
    25     1     2   ar
    26     3     4   ar
    27     5     6   ar
    28    17    18    1
@<TRIPOS>MOLECULE
Molport-020-292-986 MCULE-4586714194 PubChem-110265453
 26 28 0 0 0
SMALL
GASTEIGER

@<TRIPOS>ATOM
      1 C          10.6023   41.0862    6.2035 C.ar    1  UNL1        0.1339
      2 C          10.7409   39.7343    6.5454 C.ar    1  UNL1        0.0345
      3 C           9.6293   39.0179    6.9902 C.ar    1  UNL1        0.0041
      4 C           8.3907   39.6506    7.0909 C.ar    1  UNL1        0.0149
      5 C           8.2809   41.0023    6.7383 C.ar    1  UNL1        0.0614
      6 N           9.3810   41.6784    6.3082 N.ar    1  UNL1       -0.2348
      7 C           6.9746   41.7232    6.8416 C.3     1  UNL1        0.0563
      8 C           7.1749   43.2352    6.6880 C.3     1  UNL1        0.0087
      9 C           5.9297   43.9989    7.1361 C.3     1  UNL1        0.0178
     10 C           5.4404   43.5570    8.5259 C.3     1  UNL1        0.0721
     11 C           6.2317   41.3523    8.1355 C.3     1  UNL1        0.0780
     12 N           6.2459   42.4671    9.0834 N.3     1  UNL1       -0.2723
     13 C           5.5651   42.0171   10.2870 C.3     1  UNL1        0.0721
     14 C           4.0727   42.2929   10.1877 C.3     1  UNL1        0.0160
     15 C           3.3731   41.0624    9.6537 C.3     1  UNL1        0.0014
     16 C           3.8174   43.4547    9.2468 C.3     1  UNL1        0.0014
     17 N          11.7120   41.8678    5.7383 N.pl3   1  UNL1       -0.2680
     18 H          11.5977   42.3106    4.8664 H       1  UNL1        0.1565
     19 C          14.9081   40.4578    9.1317 C.3     1  UNL1        0.0522
     20 C          14.5258   41.3928    8.0419 C.ar    1  UNL1        0.0634
     21 C          15.3827   42.4311    7.6819 C.ar    1  UNL1        0.0296
     22 C          14.9885   43.2865    6.6549 C.ar    1  UNL1        0.0634
     23 C          12.9683   42.0785    6.3967 C.ar    1  UNL1        0.2211
     24 C          15.8718   44.4074    6.2403 C.3     1  UNL1        0.0522
     25 N          13.7955   43.0971    6.0339 N.ar    1  UNL1       -0.2179
     26 N          13.3412   41.2350    7.3959 N.ar    1  UNL1       -0.2179
@<TRIPOS>BOND
     1    19    20    1
     2    20    26   ar
     3    21    22   ar
     4    23    25   ar
     5    23    17    1
     6     1     6   ar
     7     2     3   ar
     8     4     5   ar
     9     7     5    1
    10     7     8    1
    11     8     9    1
    12     9    10    1
    13    10    12    1
    14    11    12    1
    15    11     7    1
    16    13    12    1
    17    13    14    1
    18    14    15    1
    19    14    16    1
    20    24    22    1
    21    17     1    1
    22    20    21   ar
    23    22    25   ar
    24    23    26   ar
    25     1     2   ar
    26     3     4   ar
    27     5     6   ar
    28    17    18    1
@<TRIPOS>MOLECULE
Molport-020-292-986 MCULE-4586714194 PubChem-110265453
 26 28 0 0 0
SMALL
GASTEIGER

@<TRIPOS>ATOM
      1 C          14.0256   40.4608    9.4729 C.ar    1  UNL1        0.1339
      2 C          14.1443   39.5857   10.5610 C.ar    1  UNL1        0.0345
      3 C          13.0769   39.4386   11.4474 C.ar    1  UNL1        0.0041
      4 C          11.9018   40.1616   11.2447 C.ar    1  UNL1        0.0149
      5 C          11.8100   41.0263   10.1460 C.ar    1  UNL1        0.0614
      6 N          12.8662   41.1521    9.2969 N.ar    1  UNL1       -0.2348
      7 C          10.5730   41.8292    9.8970 C.3     1  UNL1        0.0563
      8 C           9.4320   41.3669   10.8104 C.3     1  UNL1        0.0087
      9 C           8.0913   41.9222   10.3324 C.3     1  UNL1        0.0178
     10 C           7.8531   41.6686    8.8340 C.3     1  UNL1        0.0721
     11 C          10.1851   41.8123    8.4094 C.3     1  UNL1        0.0780
     12 N           8.9877   40.9998    8.1914 N.3     1  UNL1       -0.2723
     13 C           8.7202   41.0027    6.7620 C.3     1  UNL1        0.0721
     14 C           8.4138   39.5944    6.2762 C.3     1  UNL1        0.0160
     15 C           6.9153   39.3863    6.2645 C.3     1  UNL1        0.0014
     16 C           9.0479   38.5730    7.2008 C.3     1  UNL1        0.0014
     17 N          15.0914   40.6471    8.5306 N.pl3   1  UNL1       -0.2680
     18 H          15.6048   39.8425    8.2890 H       1  UNL1        0.1565
     19 C          18.4821   44.0940    7.9466 C.3     1  UNL1        0.0522
     20 C          17.1431   43.5444    7.6104 C.ar    1  UNL1        0.0634
     21 C          16.3248   44.2104    6.7001 C.ar    1  UNL1        0.0296
     22 C          15.0765   43.6630    6.4109 C.ar    1  UNL1        0.0634
     23 C          15.4952   41.8701    7.9000 C.ar    1  UNL1        0.2211
     24 C          14.1720   44.3417    5.4466 C.3     1  UNL1        0.0522
     25 N          14.6852   42.5097    7.0121 N.ar    1  UNL1       -0.2179
     26 N          16.7168   42.3920    8.1900 N.ar    1  UNL1       -0.2179
@<TRIPOS>BOND
     1    19    20    1
     2    20    26   ar
     3    21    22   ar
     4    23    25   ar
     5    23    17    1
     6     1     6   ar
     7     2     3   ar
     8     4     5   ar
     9     7     5    1
    10     7     8    1
    11     8     9    1
    12     9    10    1
    13    10    12    1
    14    11    12    1
    15    11     7    1
    16    13    12    1
    17    13    14    1
    18    14    15    1
    19    14    16    1
    20    24    22    1
    21    17     1    1
    22    20    21   ar
    23    22    25   ar
    24    23    26   ar
    25     1     2   ar
    26     3     4   ar
    27     5     6   ar
    28    17    18    1
@<TRIPOS>MOLECULE
Molport-020-292-986 MCULE-4586714194 PubChem-110265453
 26 28 0 0 0
SMALL
GASTEIGER

@<TRIPOS>ATOM
      1 C          11.7381   41.5206    7.0114 C.ar    1  UNL1        0.1339
      2 C          11.4098   40.3070    6.3925 C.ar    1  UNL1        0.0345
      3 C          10.2214   39.6593    6.7311 C.ar    1  UNL1        0.0041
      4 C           9.3700   40.2231    7.6808 C.ar    1  UNL1        0.0149
      5 C           9.7219   41.4395    8.2805 C.ar    1  UNL1        0.0614
      6 N          10.8875   42.0503    7.9330 N.ar    1  UNL1       -0.2348
      7 C           8.8442   42.0740    9.3119 C.3     1  UNL1        0.0563
      8 C           8.9844   41.3577   10.6599 C.3     1  UNL1        0.0087
      9 C           7.8565   41.7571   11.6100 C.3     1  UNL1        0.0178
     10 C           6.4689   41.6276   10.9588 C.3     1  UNL1        0.0721
     11 C           7.3856   42.1543    8.8325 C.3     1  UNL1        0.0780
     12 N           6.5444   41.2021    9.5585 N.3     1  UNL1       -0.2723
     13 C           5.2004   41.3134    9.0144 C.3     1  UNL1        0.0721
     14 C           4.3917   42.3333    9.8012 C.3     1  UNL1        0.0160
     15 C           3.0781   41.7111   10.2207 C.3     1  UNL1        0.0014
     16 C           4.1103   43.5517    8.9428 C.3     1  UNL1        0.0014
     17 N          12.9459   42.2288    6.6980 N.pl3   1  UNL1       -0.2680
     18 H          12.8933   42.8717    5.9542 H       1  UNL1        0.1565
     19 C          17.4755   43.9179    7.2888 C.3     1  UNL1        0.0522
     20 C          16.4214   42.9297    7.6360 C.ar    1  UNL1        0.0634
     21 C          16.6842   41.9295    8.5700 C.ar    1  UNL1        0.0296
     22 C          15.6698   41.0221    8.8689 C.ar    1  UNL1        0.0634
     23 C          14.2210   42.1083    7.3431 C.ar    1  UNL1        0.2211
     24 C          15.9084   39.9392    9.8583 C.3     1  UNL1        0.0522
     25 N          14.4632   41.1260    8.2540 N.ar    1  UNL1       -0.2179
     26 N          15.2010   43.0018    7.0434 N.ar    1  UNL1       -0.2179
@<TRIPOS>BOND
     1    19    20    1
     2    20    26   ar
     3    21    22   ar
     4    23    25   ar
     5    23    17    1
     6     1     6   ar
     7     2     3   ar
     8     4     5   ar
     9     7     5    1
    10     7     8    1
    11     8     9    1
    12     9    10    1
    13    10    12    1
    14    11    12    1
    15    11     7    1
    16    13    12    1
    17    13    14    1
    18    14    15    1
    19    14    16    1
    20    24    22    1
    21    17     1    1
    22    20    21   ar
    23    22    25   ar
    24    23    26   ar
    25     1     2   ar
    26     3     4   ar
    27     5     6   ar
    28    17    18    1
@<TRIPOS>MOLECULE
Molport-020-292-986 MCULE-4586714194 PubChem-110265453
 26 28 0 0 0
SMALL
GASTEIGER

@<TRIPOS>ATOM
      1 C          13.4772   40.1111    9.0267 C.ar    1  UNL1        0.1339
      2 C          13.0884   38.8289    8.6164 C.ar    1  UNL1        0.0345
      3 C          11.7610   38.4281    8.7711 C.ar    1  UNL1        0.0041
      4 C          10.8322   39.3046    9.3313 C.ar    1  UNL1        0.0149
      5 C          11.2485   40.5821    9.7288 C.ar    1  UNL1        0.0614
      6 N          12.5495   40.9478    9.5677 N.ar    1  UNL1       -0.2348
      7 C          10.2886   41.5499   10.3443 C.3     1  UNL1        0.0563
      8 C           9.7074   40.9855   11.6456 C.3     1  UNL1        0.0087
      9 C           8.4861   41.7883   12.0911 C.3     1  UNL1        0.0178
     10 C           7.4605   41.9705   10.9593 C.3     1  UNL1        0.0721
     11 C           9.2006   41.9719    9.3434 C.3     1  UNL1        0.0780
     12 N           7.9095   41.3799    9.6955 N.3     1  UNL1       -0.2723
     13 C           6.9554   41.7924    8.6786 C.3     1  UNL1        0.0721
     14 C           7.4630   43.0222    7.9416 C.3     1  UNL1        0.0160
     15 C           6.6214   44.2181    8.3292 C.3     1  UNL1        0.0014
     16 C           7.3632   42.8117    6.4429 C.3     1  UNL1        0.0014
     17 N          14.8282   40.5741    8.8879 N.pl3   1  UNL1       -0.2680
     18 H          15.5184   40.0496    9.3547 H       1  UNL1        0.1565
     19 C          13.9476   43.9513    5.4912 C.3     1  UNL1        0.0522
     20 C          14.8623   43.3582    6.5009 C.ar    1  UNL1        0.0634
     21 C          16.1228   43.9140    6.7112 C.ar    1  UNL1        0.0296
     22 C          16.9512   43.3292    7.6669 C.ar    1  UNL1        0.0634
     23 C          15.2892   41.7126    8.1479 C.ar    1  UNL1        0.2211
     24 C          18.3037   43.8897    7.9219 C.3     1  UNL1        0.0522
     25 N          16.5232   42.2452    8.3644 N.ar    1  UNL1       -0.2179
     26 N          14.4695   42.2743    7.2197 N.ar    1  UNL1       -0.2179
@<TRIPOS>BOND
     1    19    20    1
     2    20    26   ar
     3    21    22   ar
     4    23    25   ar
     5    23    17    1
     6     1     6   ar
     7     2     3   ar
     8     4     5   ar
     9     7     5    1
    10     7     8    1
    11     8     9    1
    12     9    10    1
    13    10    12    1
    14    11    12    1
    15    11     7    1
    16    13    12    1
    17    13    14    1
    18    14    15    1
    19    14    16    1
    20    24    22    1
    21    17     1    1
    22    20    21   ar
    23    22    25   ar
    24    23    26   ar
    25     1     2   ar
    26     3     4   ar
    27     5     6   ar
    28    17    18    1
@<TRIPOS>MOLECULE
Molport-020-292-986 MCULE-4586714194 PubChem-110265453
 26 28 0 0 0
SMALL
GASTEIGER

@<TRIPOS>ATOM
      1 C          11.5273   40.9232    8.9707 C.ar    1  UNL1        0.1339
      2 C          11.4570   40.6359   10.3405 C.ar    1  UNL1        0.0345
      3 C          10.3178   40.9929   11.0625 C.ar    1  UNL1        0.0041
      4 C           9.2591   41.6314   10.4175 C.ar    1  UNL1        0.0149
      5 C           9.3554   41.9025    9.0462 C.ar    1  UNL1        0.0614
      6 N          10.4782   41.5446    8.3653 N.ar    1  UNL1       -0.2348
      7 C           8.2487   42.5954    8.3168 C.3     1  UNL1        0.0563
      8 C           7.9193   43.9384    8.9784 C.3     1  UNL1        0.0087
      9 C           6.5840   44.4827    8.4730 C.3     1  UNL1        0.0178
     10 C           5.4579   43.4378    8.5525 C.3     1  UNL1        0.0721
     11 C           7.0168   41.6865    8.1754 C.3     1  UNL1        0.0780
     12 N           5.9305   42.1407    9.0443 N.3     1  UNL1       -0.2723
     13 C           4.8293   41.2050    8.8813 C.3     1  UNL1        0.0721
     14 C           4.2092   40.8744   10.2302 C.3     1  UNL1        0.0160
     15 C           2.9810   41.7329   10.4378 C.3     1  UNL1        0.0014
     16 C           5.2010   41.1521   11.3436 C.3     1  UNL1        0.0014
     17 N          12.6739   40.5755    8.1814 N.pl3   1  UNL1       -0.2680
     18 H          12.7097   39.6491    7.8499 H       1  UNL1        0.1565
     19 C          17.3252   41.8529    8.8539 C.3     1  UNL1        0.0522
     20 C          16.0353   42.0415    8.1407 C.ar    1  UNL1        0.0634
     21 C          15.9237   43.0123    7.1472 C.ar    1  UNL1        0.0296
     22 C          14.6977   43.1582    6.5014 C.ar    1  UNL1        0.0634
     23 C          13.7737   41.4216    7.8195 C.ar    1  UNL1        0.2211
     24 C          14.5351   44.1823    5.4368 C.3     1  UNL1        0.0522
     25 N          13.6500   42.3657    6.8465 N.ar    1  UNL1       -0.2179
     26 N          14.9649   41.2669    8.4566 N.ar    1  UNL1       -0.2179
@<TRIPOS>BOND
     1    19    20    1
     2    20    26   ar
     3    21    22   ar
     4    23    25   ar
     5    23    17    1
     6     1     6   ar
     7     2     3   ar
     8     4     5   ar
     9     7     5    1
    10     7     8    1
    11     8     9    1
    12     9    10    1
    13    10    12    1
    14    11    12    1
    15    11     7    1
    16    13    12    1
    17    13    14    1
    18    14    15    1
    19    14    16    1
    20    24    22    1
    21    17     1    1
    22    20    21   ar
    23    22    25   ar
    24    23    26   ar
    25     1     2   ar
    26     3     4   ar
    27     5     6   ar
    28    17    18    1
@<TRIPOS>MOLECULE
Molport-020-292-986 MCULE-4586714194 PubChem-110265453
 26 28 0 0 0
SMALL
GASTEIGER

@<TRIPOS>ATOM
      1 C          12.3033   40.9703    7.7783 C.ar    1  UNL1        0.1339
      2 C          11.5243   40.5676    6.6853 C.ar    1  UNL1        0.0345
      3 C          10.1335   40.6454    6.7636 C.ar    1  UNL1        0.0041
      4 C           9.5295   41.1228    7.9264 C.ar    1  UNL1        0.0149
      5 C          10.3336   41.5222    9.0021 C.ar    1  UNL1        0.0614
      6 N          11.6880   41.4352    8.9001 N.ar    1  UNL1       -0.2348
      7 C           9.7279   42.0295   10.2719 C.3     1  UNL1        0.0563
      8 C           9.8294   40.9763   11.3811 C.3     1  UNL1        0.0087
      9 C           8.9196   41.3318   12.5560 C.3     1  UNL1        0.0178
     10 C           7.4832   41.6520   12.1084 C.3     1  UNL1        0.0721
     11 C           8.2872   42.5177   10.0485 C.3     1  UNL1        0.0780
     12 N           7.3242   41.5963   10.6526 N.3     1  UNL1       -0.2723
     13 C           5.9955   42.1080   10.3571 C.3     1  UNL1        0.0721
     14 C           4.9812   40.9747   10.3420 C.3     1  UNL1        0.0160
     15 C           4.1475   41.0690    9.0831 C.3     1  UNL1        0.0014
     16 C           4.0680   41.0745   11.5489 C.3     1  UNL1        0.0014
     17 N          13.7367   40.9133    7.7493 N.pl3   1  UNL1       -0.2680
     18 H          14.1416   40.0366    7.9410 H       1  UNL1        0.1565
     19 C          18.1699   42.8461    8.3235 C.3     1  UNL1        0.0522
     20 C          16.8028   42.9255    7.7466 C.ar    1  UNL1        0.0634
     21 C          16.4419   44.0153    6.9567 C.ar    1  UNL1        0.0296
     22 C          15.1509   44.0530    6.4337 C.ar    1  UNL1        0.0634
     23 C          14.6476   41.9859    7.4733 C.ar    1  UNL1        0.2211
     24 C          14.7245   45.1976    5.5872 C.3     1  UNL1        0.0522
     25 N          14.2811   43.0443    6.6994 N.ar    1  UNL1       -0.2179
     26 N          15.9049   41.9351    7.9885 N.ar    1  UNL1       -0.2179
@<TRIPOS>BOND
     1    19    20    1
     2    20    26   ar
     3    21    22   ar
     4    23    25   ar
     5    23    17    1
     6     1     6   ar
     7     2     3   ar
     8     4     5   ar
     9     7     5    1
    10     7     8    1
    11     8     9    1
    12     9    10    1
    13    10    12    1
    14    11    12    1
    15    11     7    1
    16    13    12    1
    17    13    14    1
    18    14    15    1
    19    14    16    1
    20    24    22    1
    21    17     1    1
    22    20    21   ar
    23    22    25   ar
    24    23    26   ar
    25     1     2   ar
    26     3     4   ar
    27     5     6   ar
    28    17    18    1
@<TRIPOS>MOLECULE
Molport-020-292-986 MCULE-4586714194 PubChem-110265453
 26 28 0 0 0
SMALL
GASTEIGER

@<TRIPOS>ATOM
      1 C          13.9598   39.4356    9.1918 C.ar    1  UNL1        0.1339
      2 C          13.7387   38.4910   10.2030 C.ar    1  UNL1        0.0345
      3 C          12.5083   37.8378   10.2796 C.ar    1  UNL1        0.0041
      4 C          11.5092   38.1285    9.3511 C.ar    1  UNL1        0.0149
      5 C          11.7598   39.0746    8.3484 C.ar    1  UNL1        0.0614
      6 N          12.9684   39.6982    8.2966 N.ar    1  UNL1       -0.2348
      7 C          10.7133   39.4251    7.3391 C.3     1  UNL1        0.0563
      8 C          11.3476   40.0620    6.0974 C.3     1  UNL1        0.0087
      9 C          10.2874   40.7362    5.2279 C.3     1  UNL1        0.0178
     10 C           9.3797   41.6787    6.0365 C.3     1  UNL1        0.0721
     11 C           9.6113   40.3012    7.9569 C.3     1  UNL1        0.0780
     12 N           9.7016   41.6769    7.4662 N.3     1  UNL1       -0.2723
     13 C           8.6575   42.4402    8.1310 C.3     1  UNL1        0.0721
     14 C           7.3648   42.3799    7.3319 C.3     1  UNL1        0.0160
     15 C           6.8450   43.7845    7.1185 C.3     1  UNL1        0.0014
     16 C           6.3222   41.5755    8.0844 C.3     1  UNL1        0.0014
     17 N          15.2071   40.1337    9.0664 N.pl3   1  UNL1       -0.2680
     18 H          15.9798   39.7304    9.5243 H       1  UNL1        0.1565
     19 C          13.6574   43.4652    5.8699 C.3     1  UNL1        0.0522
     20 C          14.7057   42.9743    6.8016 C.ar    1  UNL1        0.0634
     21 C          15.8860   43.6967    6.9657 C.ar    1  UNL1        0.0296
     22 C          16.8446   43.2036    7.8487 C.ar    1  UNL1        0.0634
     23 C          15.4581   41.3510    8.3512 C.ar    1  UNL1        0.2211
     24 C          18.1180   43.9422    8.0525 C.3     1  UNL1        0.0522
     25 N          16.6160   42.0463    8.5220 N.ar    1  UNL1       -0.2179
     26 N          14.5131   41.8215    7.4942 N.ar    1  UNL1       -0.2179
@<TRIPOS>BOND
     1    19    20    1
     2    20    26   ar
     3    21    22   ar
     4    23    25   ar
     5    23    17    1
     6     1     6   ar
     7     2     3   ar
     8     4     5   ar
     9     7     5    1
    10     7     8    1
    11     8     9    1
    12     9    10    1
    13    10    12    1
    14    11    12    1
    15    11     7    1
    16    13    12    1
    17    13    14    1
    18    14    15    1
    19    14    16    1
    20    24    22    1
    21    17     1    1
    22    20    21   ar
    23    22    25   ar
    24    23    26   ar
    25     1     2   ar
    26     3     4   ar
    27     5     6   ar
    28    17    18    1
@<TRIPOS>MOLECULE
Molport-020-292-986 MCULE-4586714194 PubChem-110265453
 26 28 0 0 0
SMALL
GASTEIGER

@<TRIPOS>ATOM
      1 C          10.4456   41.4056    9.0788 C.ar    1  UNL1        0.1339
      2 C          10.5203   41.6110   10.4630 C.ar    1  UNL1        0.0345
      3 C           9.4574   42.2234   11.1277 C.ar    1  UNL1        0.0041
      4 C           8.3304   42.6257   10.4117 C.ar    1  UNL1        0.0149
      5 C           8.2816   42.4039    9.0291 C.ar    1  UNL1        0.0614
      6 N           9.3324   41.8052    8.4047 N.ar    1  UNL1       -0.2348
      7 C           7.0976   42.8292    8.2204 C.3     1  UNL1        0.0563
      8 C           6.9042   44.3479    8.2973 C.3     1  UNL1        0.0087
      9 C           5.5235   44.7491    7.7806 C.3     1  UNL1        0.0178
     10 C           4.3949   43.9277    8.4270 C.3     1  UNL1        0.0721
     11 C           5.8352   42.0500    8.6242 C.3     1  UNL1        0.0780
     12 N           4.9014   42.9101    9.3520 N.3     1  UNL1       -0.2723
     13 C           3.7645   42.0866    9.7314 C.3     1  UNL1        0.0721
     14 C           3.8064   41.7765   11.2198 C.3     1  UNL1        0.0160
     15 C           4.0521   40.2964   11.4136 C.3     1  UNL1        0.0014
     16 C           2.4867   42.1482   11.8685 C.3     1  UNL1        0.0014
     17 N          11.5088   40.7784    8.3473 N.pl3   1  UNL1       -0.2680
     18 H          11.3392   39.8609    8.0334 H       1  UNL1        0.1565
     19 C          14.1216   43.8913    5.6637 C.3     1  UNL1        0.0522
     20 C          14.0618   42.8493    6.7213 C.ar    1  UNL1        0.0634
     21 C          15.2279   42.4458    7.3689 C.ar    1  UNL1        0.0296
     22 C          15.1303   41.4664    8.3552 C.ar    1  UNL1        0.0634
     23 C          12.7899   41.3340    8.0207 C.ar    1  UNL1        0.2211
     24 C          16.3494   41.0064    9.0698 C.3     1  UNL1        0.0522
     25 N          13.9207   40.9302    8.6622 N.ar    1  UNL1       -0.2179
     26 N          12.8701   42.2903    7.0576 N.ar    1  UNL1       -0.2179
@<TRIPOS>BOND
     1    19    20    1
     2    20    26   ar
     3    21    22   ar
     4    23    25   ar
     5    23    17    1
     6     1     6   ar
     7     2     3   ar
     8     4     5   ar
     9     7     5    1
    10     7     8    1
    11     8     9    1
    12     9    10    1
    13    10    12    1
    14    11    12    1
    15    11     7    1
    16    13    12    1
    17    13    14    1
    18    14    15    1
    19    14    16    1
    20    24    22    1
    21    17     1    1
    22    20    21   ar
    23    22    25   ar
    24    23    26   ar
    25     1     2   ar
    26     3     4   ar
    27     5     6   ar
    28    17    18    1
@<TRIPOS>MOLECULE
Molport-020-292-986 MCULE-4586714194 PubChem-110265453
 26 28 0 0 0
SMALL
GASTEIGER

@<TRIPOS>ATOM
      1 C          12.3053   41.6825    7.0267 C.ar    1  UNL1        0.1339
      2 C          11.6865   40.7067    6.2339 C.ar    1  UNL1        0.0345
      3 C          10.4681   40.1604    6.6381 C.ar    1  UNL1        0.0041
      4 C           9.8754   40.5885    7.8256 C.ar    1  UNL1        0.0149
      5 C          10.5149   41.5686    8.5962 C.ar    1  UNL1        0.0614
      6 N          11.7035   42.0845    8.1797 N.ar    1  UNL1       -0.2348
      7 C           9.9207   42.0487    9.8820 C.3     1  UNL1        0.0563
      8 C           9.8355   40.9068   10.9011 C.3     1  UNL1        0.0087
      9 C           8.9251   41.2843   12.0687 C.3     1  UNL1        0.0178
     10 C           7.5636   41.8244   11.5988 C.3     1  UNL1        0.0721
     11 C           8.5661   42.7377    9.6495 C.3     1  UNL1        0.0780
     12 N           7.4664   41.9056   10.1388 N.3     1  UNL1       -0.2723
     13 C           6.2290   42.6087    9.8404 C.3     1  UNL1        0.0721
     14 C           5.7459   42.2629    8.4403 C.3     1  UNL1        0.0160
     15 C           6.1782   40.8541    8.0979 C.3     1  UNL1        0.0014
     16 C           6.3428   43.2231    7.4293 C.3     1  UNL1        0.0014
     17 N          13.5568   42.2785    6.6560 N.pl3   1  UNL1       -0.2680
     18 H          13.5601   42.8007    5.8214 H       1  UNL1        0.1565
     19 C          16.3254   40.0069    9.9565 C.3     1  UNL1        0.0522
     20 C          16.1529   41.0965    8.9609 C.ar    1  UNL1        0.0634
     21 C          17.1887   41.9996    8.7297 C.ar    1  UNL1        0.0296
     22 C          16.9884   43.0071    7.7882 C.ar    1  UNL1        0.0634
     23 C          14.8032   42.2012    7.3609 C.ar    1  UNL1        0.2211
     24 C          18.0665   43.9919    7.5118 C.3     1  UNL1        0.0522
     25 N          15.8064   43.0905    7.1242 N.ar    1  UNL1       -0.2179
     26 N          14.9857   41.2118    8.2755 N.ar    1  UNL1       -0.2179
@<TRIPOS>BOND
     1    19    20    1
     2    20    26   ar
     3    21    22   ar
     4    23    25   ar
     5    23    17    1
     6     1     6   ar
     7     2     3   ar
     8     4     5   ar
     9     7     5    1
    10     7     8    1
    11     8     9    1
    12     9    10    1
    13    10    12    1
    14    11    12    1
    15    11     7    1
    16    13    12    1
    17    13    14    1
    18    14    15    1
    19    14    16    1
    20    24    22    1
    21    17     1    1
    22    20    21   ar
    23    22    25   ar
    24    23    26   ar
    25     1     2   ar
    26     3     4   ar
    27     5     6   ar
    28    17    18    1
