@<TRIPOS>MOLECULE
MolPort-007-723-587 ChemDiv-E157-6434 MCULE-8263968904 PubChem-22518109 ZINC000009405031 ZINC09405031
 30 32 0 0 0
SMALL
GASTEIGER

@<TRIPOS>ATOM
      1 C          17.7120   42.2714    7.8807 C.ar    1  UNL1        0.2593
      2 C          17.5843   40.6052    9.5855 C.ar    1  UNL1        0.1894
      3 N          18.6097   41.2759    7.7143 N.ar    1  UNL1       -0.1187
      4 N          18.5407   40.3471    8.6662 N.ar    1  UNL1       -0.1239
      5 S          16.7615   42.0340    9.2506 S.2     1  UNL1       -0.0102
      6 C          16.7961   38.4325   10.6333 C.2     1  UNL1        0.2721
      7 N          17.3018   39.7687   10.7111 N.am    1  UNL1       -0.2597
      8 O          16.5552   37.8910    9.5216 O.2     1  UNL1       -0.2707
      9 H          17.4679   40.1408   11.6074 H       1  UNL1        0.1569
     10 C          16.5906   37.6575   11.8849 C.3     1  UNL1        0.2897
     11 O          15.2764   37.1183   11.8999 O.3     1  UNL1       -0.4659
     12 C          14.1310   37.7475   11.3861 C.ar    1  UNL1        0.1352
     13 C          13.1434   37.1047   10.5907 C.ar    1  UNL1        0.0121
     14 C          13.2127   35.6694   10.1961 C.3     1  UNL1        0.0342
     15 C          12.0420   37.8354   10.1316 C.ar    1  UNL1       -0.0013
     16 C          11.9032   39.1876   10.4462 C.ar    1  UNL1       -0.0001
     17 C          12.8692   39.8230   11.2250 C.ar    1  UNL1        0.0031
     18 C          13.9731   39.1058   11.6887 C.ar    1  UNL1        0.0366
     19 S          17.5411   43.6213    6.7777 S.O2    1  UNL1        0.1010
     20 O          18.2711   44.8076    7.3427 O.2     1  UNL1       -0.1477
     21 O          18.1420   43.2735    5.4449 O.2     1  UNL1       -0.1477
     22 C          15.4966   45.3758    6.2706 C.3     1  UNL1        0.1392
     23 N          15.8566   43.9967    6.5703 N.pl3   1  UNL1       -0.1870
     24 C          14.8357   42.9881    6.7111 C.ar    1  UNL1        0.0689
     25 C          14.9522   41.9858    7.6896 C.ar    1  UNL1        0.0158
     26 C          13.9648   41.0061    7.8273 C.ar    1  UNL1       -0.0029
     27 C          12.8481   41.0174    6.9886 C.ar    1  UNL1       -0.0218
     28 C          11.7992   39.9748    7.1328 C.3     1  UNL1        0.0310
     29 C          12.7195   42.0067    6.0115 C.ar    1  UNL1       -0.0029
     30 C          13.7069   42.9861    5.8749 C.ar    1  UNL1        0.0158
@<TRIPOS>BOND
     1    22    23    1
     2    25    26   ar
     3    27    29   ar
     4    28    27    1
     5    30    24   ar
     6     1     5   ar
     7     2     7    1
     8     2     5   ar
     9    10     6    1
    10    10    11    1
    11    12    11    1
    12    13    15   ar
    13    14    13    1
    14    16    17   ar
    15    18    12   ar
    16    23    24    1
    17     3     4   ar
    18     7     6   am
    19    19    23    1
    20    19     1    1
    21    24    25   ar
    22    26    27   ar
    23    29    30   ar
    24     1     3   ar
    25     2     4   ar
    26     6     8    2
    27    12    13   ar
    28    15    16   ar
    29    17    18   ar
    30    19    20    2
    31    19    21    2
    32     7     9    1
@<TRIPOS>MOLECULE
MolPort-007-723-587 ChemDiv-E157-6434 MCULE-8263968904 PubChem-22518109 ZINC000009405031 ZINC09405031
 30 32 0 0 0
SMALL
GASTEIGER

@<TRIPOS>ATOM
      1 C           8.7499   41.3702    6.5555 C.ar    1  UNL1        0.2593
      2 C          11.0651   40.8344    6.7820 C.ar    1  UNL1        0.1894
      3 N           9.4471   41.5475    5.4123 N.ar    1  UNL1       -0.1187
      4 N          10.7394   41.2509    5.5384 N.ar    1  UNL1       -0.1239
      5 S           9.7310   40.8159    7.8071 S.2     1  UNL1       -0.0102
      6 C          13.0643   40.9551    8.3404 C.2     1  UNL1        0.2721
      7 N          12.3842   40.4549    7.1851 N.am    1  UNL1       -0.2597
      8 O          12.5206   41.7987    9.1018 O.2     1  UNL1       -0.2707
      9 H          12.8602   39.7999    6.6251 H       1  UNL1        0.1569
     10 C          14.4192   40.4391    8.6683 C.3     1  UNL1        0.2897
     11 O          15.3487   41.5134    8.6735 O.3     1  UNL1       -0.4659
     12 C          15.4790   42.4837    7.6669 C.ar    1  UNL1        0.1352
     13 C          16.5664   43.3929    7.5562 C.ar    1  UNL1        0.0121
     14 C          17.7076   43.4294    8.5137 C.3     1  UNL1        0.0342
     15 C          16.5883   44.3205    6.5088 C.ar    1  UNL1       -0.0013
     16 C          15.5547   44.3622    5.5726 C.ar    1  UNL1       -0.0001
     17 C          14.4858   43.4736    5.6770 C.ar    1  UNL1        0.0031
     18 C          14.4512   42.5438    6.7175 C.ar    1  UNL1        0.0366
     19 S           7.0266   41.6501    6.6969 S.O2    1  UNL1        0.1010
     20 O           6.5224   42.2439    5.4113 O.2     1  UNL1       -0.1477
     21 O           6.3143   40.3495    6.9410 O.2     1  UNL1       -0.1477
     22 C           7.4622   43.9848    8.0662 C.3     1  UNL1        0.1392
     23 N           6.7174   42.7340    8.0202 N.pl3   1  UNL1       -0.1870
     24 C           5.7726   42.4064    9.0590 C.ar    1  UNL1        0.0689
     25 C           6.1776   41.6722   10.1871 C.ar    1  UNL1        0.0158
     26 C           5.2635   41.3521   11.1950 C.ar    1  UNL1       -0.0029
     27 C           3.9331   41.7632   11.0874 C.ar    1  UNL1       -0.0218
     28 C           2.9603   41.4213   12.1572 C.3     1  UNL1        0.0310
     29 C           3.5164   42.4927    9.9719 C.ar    1  UNL1       -0.0029
     30 C           4.4311   42.8127    8.9651 C.ar    1  UNL1        0.0158
@<TRIPOS>BOND
     1    22    23    1
     2    25    26   ar
     3    27    29   ar
     4    28    27    1
     5    30    24   ar
     6     1     5   ar
     7     2     7    1
     8     2     5   ar
     9    10     6    1
    10    10    11    1
    11    12    11    1
    12    13    15   ar
    13    14    13    1
    14    16    17   ar
    15    18    12   ar
    16    23    24    1
    17     3     4   ar
    18     7     6   am
    19    19    23    1
    20    19     1    1
    21    24    25   ar
    22    26    27   ar
    23    29    30   ar
    24     1     3   ar
    25     2     4   ar
    26     6     8    2
    27    12    13   ar
    28    15    16   ar
    29    17    18   ar
    30    19    20    2
    31    19    21    2
    32     7     9    1
@<TRIPOS>MOLECULE
MolPort-007-723-587 ChemDiv-E157-6434 MCULE-8263968904 PubChem-22518109 ZINC000009405031 ZINC09405031
 30 32 0 0 0
SMALL
GASTEIGER

@<TRIPOS>ATOM
      1 C          13.1947   38.9374    9.6787 C.ar    1  UNL1        0.2593
      2 C          10.9690   39.7558    9.9535 C.ar    1  UNL1        0.1894
      3 N          12.3673   38.5629    8.6789 N.ar    1  UNL1       -0.1187
      4 N          11.1248   39.0172    8.8326 N.ar    1  UNL1       -0.1239
      5 S          12.4018   39.8805   10.8268 S.2     1  UNL1       -0.0102
      6 C           9.4939   41.7692   10.4113 C.2     1  UNL1        0.2721
      7 N           9.7363   40.3601   10.3555 N.am    1  UNL1       -0.2597
      8 O          10.3910   42.5972   10.1005 O.2     1  UNL1       -0.2707
      9 H           8.9988   39.7611   10.6134 H       1  UNL1        0.1569
     10 C           8.1474   42.2615   10.8039 C.3     1  UNL1        0.2897
     11 O           7.1888   41.8413    9.8434 O.3     1  UNL1       -0.4659
     12 C           6.1474   42.6317    9.3309 C.ar    1  UNL1        0.1352
     13 C           4.7763   42.4860    9.6771 C.ar    1  UNL1        0.0121
     14 C           4.2747   41.4574   10.6317 C.3     1  UNL1        0.0342
     15 C           3.8235   43.3324    9.0995 C.ar    1  UNL1       -0.0013
     16 C           4.2051   44.3173    8.1879 C.ar    1  UNL1       -0.0001
     17 C           5.5481   44.4637    7.8442 C.ar    1  UNL1        0.0031
     18 C           6.5086   43.6254    8.4125 C.ar    1  UNL1        0.0366
     19 S          14.8941   38.5183    9.7431 S.O2    1  UNL1        0.1010
     20 O          15.1823   37.8529   11.0598 O.2     1  UNL1       -0.1477
     21 O          15.2284   37.5607    8.6341 O.2     1  UNL1       -0.1477
     22 C          17.0495   40.0793   10.4011 C.3     1  UNL1        0.1392
     23 N          15.8572   39.9554    9.5737 N.pl3   1  UNL1       -0.1870
     24 C          15.4856   41.0100    8.6633 C.ar    1  UNL1        0.0689
     25 C          14.1768   41.0878    8.1566 C.ar    1  UNL1        0.0158
     26 C          13.8142   42.1082    7.2728 C.ar    1  UNL1       -0.0029
     27 C          14.7560   43.0640    6.8856 C.ar    1  UNL1       -0.0218
     28 C          14.3720   44.1476    5.9442 C.3     1  UNL1        0.0310
     29 C          16.0602   42.9987    7.3804 C.ar    1  UNL1       -0.0029
     30 C          16.4216   41.9785    8.2644 C.ar    1  UNL1        0.0158
@<TRIPOS>BOND
     1    22    23    1
     2    25    26   ar
     3    27    29   ar
     4    28    27    1
     5    30    24   ar
     6     1     5   ar
     7     2     7    1
     8     2     5   ar
     9    10     6    1
    10    10    11    1
    11    12    11    1
    12    13    15   ar
    13    14    13    1
    14    16    17   ar
    15    18    12   ar
    16    23    24    1
    17     3     4   ar
    18     7     6   am
    19    19    23    1
    20    19     1    1
    21    24    25   ar
    22    26    27   ar
    23    29    30   ar
    24     1     3   ar
    25     2     4   ar
    26     6     8    2
    27    12    13   ar
    28    15    16   ar
    29    17    18   ar
    30    19    20    2
    31    19    21    2
    32     7     9    1
@<TRIPOS>MOLECULE
MolPort-007-723-587 ChemDiv-E157-6434 MCULE-8263968904 PubChem-22518109 ZINC000009405031 ZINC09405031
 30 32 0 0 0
SMALL
GASTEIGER

@<TRIPOS>ATOM
      1 C           9.2014   42.0885    7.7133 C.ar    1  UNL1        0.2593
      2 C          11.2777   41.4308    8.6906 C.ar    1  UNL1        0.1894
      3 N          10.1423   41.7782    6.7952 N.ar    1  UNL1       -0.1187
      4 N          11.3017   41.4133    7.3395 N.ar    1  UNL1       -0.1239
      5 S           9.7795   41.9129    9.2853 S.2     1  UNL1       -0.0102
      6 C          12.4717   39.9079   10.3323 C.2     1  UNL1        0.2721
      7 N          12.3897   41.0836    9.5209 N.am    1  UNL1       -0.2597
      8 O          11.5275   39.0747   10.3688 O.2     1  UNL1       -0.2707
      9 H          13.1569   41.7005    9.5351 H       1  UNL1        0.1569
     10 C          13.7092   39.6467   11.1131 C.3     1  UNL1        0.2897
     11 O          14.8447   39.8256   10.2783 O.3     1  UNL1       -0.4659
     12 C          15.9444   38.9560   10.2000 C.ar    1  UNL1        0.1352
     13 C          15.9151   37.6674    9.6002 C.ar    1  UNL1        0.0121
     14 C          14.6945   37.0762    8.9826 C.3     1  UNL1        0.0342
     15 C          17.0757   36.8861    9.5826 C.ar    1  UNL1       -0.0013
     16 C          18.2609   37.3585   10.1473 C.ar    1  UNL1       -0.0001
     17 C          18.2949   38.6210   10.7377 C.ar    1  UNL1        0.0031
     18 C          17.1438   39.4101   10.7627 C.ar    1  UNL1        0.0366
     19 S           7.5693   42.5768    7.3064 S.O2    1  UNL1        0.1010
     20 O           7.2329   43.8311    8.0634 O.2     1  UNL1       -0.1477
     21 O           7.4708   42.8597    5.8337 O.2     1  UNL1       -0.1477
     22 C           6.4433   40.1116    6.8935 C.3     1  UNL1        0.1392
     23 N           6.4580   41.3073    7.7251 N.pl3   1  UNL1       -0.1870
     24 C           5.5573   41.4315    8.8441 C.ar    1  UNL1        0.0689
     25 C           6.0465   41.4015   10.1615 C.ar    1  UNL1        0.0158
     26 C           5.1754   41.5203   11.2481 C.ar    1  UNL1       -0.0029
     27 C           3.8041   41.6715   11.0305 C.ar    1  UNL1       -0.0218
     28 C           2.8772   41.7954   12.1852 C.3     1  UNL1        0.0310
     29 C           3.3038   41.7023    9.7271 C.ar    1  UNL1       -0.0029
     30 C           4.1756   41.5840    8.6414 C.ar    1  UNL1        0.0158
@<TRIPOS>BOND
     1    22    23    1
     2    25    26   ar
     3    27    29   ar
     4    28    27    1
     5    30    24   ar
     6     1     5   ar
     7     2     7    1
     8     2     5   ar
     9    10     6    1
    10    10    11    1
    11    12    11    1
    12    13    15   ar
    13    14    13    1
    14    16    17   ar
    15    18    12   ar
    16    23    24    1
    17     3     4   ar
    18     7     6   am
    19    19    23    1
    20    19     1    1
    21    24    25   ar
    22    26    27   ar
    23    29    30   ar
    24     1     3   ar
    25     2     4   ar
    26     6     8    2
    27    12    13   ar
    28    15    16   ar
    29    17    18   ar
    30    19    20    2
    31    19    21    2
    32     7     9    1
@<TRIPOS>MOLECULE
MolPort-007-723-587 ChemDiv-E157-6434 MCULE-8263968904 PubChem-22518109 ZINC000009405031 ZINC09405031
 30 32 0 0 0
SMALL
GASTEIGER

@<TRIPOS>ATOM
      1 C          10.1676   41.7655   10.5261 C.ar    1  UNL1        0.2593
      2 C          12.3237   40.8057   10.1670 C.ar    1  UNL1        0.1894
      3 N          10.4982   40.8459   11.4587 N.ar    1  UNL1       -0.1187
      4 N          11.7000   40.3084   11.2578 N.ar    1  UNL1       -0.1239
      5 S          11.3879   41.9632    9.3825 S.2     1  UNL1       -0.0102
      6 C          14.5312   39.5950   10.4840 C.2     1  UNL1        0.2721
      7 N          13.6227   40.3998    9.7263 N.am    1  UNL1       -0.2597
      8 O          14.2304   39.1815   11.6353 O.2     1  UNL1       -0.2707
      9 H          13.9137   40.6968    8.8339 H       1  UNL1        0.1569
     10 C          15.8350   39.2075    9.8845 C.3     1  UNL1        0.2897
     11 O          16.1893   37.9024   10.3197 O.3     1  UNL1       -0.4659
     12 C          16.3893   36.7908    9.4853 C.ar    1  UNL1        0.1352
     13 C          15.3478   35.9920    8.9393 C.ar    1  UNL1        0.0121
     14 C          13.9012   36.2385    9.1985 C.3     1  UNL1        0.0342
     15 C          15.6680   34.9041    8.1196 C.ar    1  UNL1       -0.0013
     16 C          16.9981   34.5956    7.8328 C.ar    1  UNL1       -0.0001
     17 C          18.0232   35.3751    8.3665 C.ar    1  UNL1        0.0031
     18 C          17.7175   36.4626    9.1863 C.ar    1  UNL1        0.0366
     19 S           8.6644   42.6644   10.5368 S.O2    1  UNL1        0.1010
     20 O           7.9351   42.3789   11.8199 O.2     1  UNL1       -0.1477
     21 O           8.9478   44.1382   10.4593 O.2     1  UNL1       -0.1477
     22 C           8.0892   41.0049    8.4319 C.3     1  UNL1        0.1392
     23 N           7.6914   42.1921    9.1760 N.pl3   1  UNL1       -0.1870
     24 C           6.5375   42.9565    8.7718 C.ar    1  UNL1        0.0689
     25 C           6.6245   43.8734    7.7099 C.ar    1  UNL1        0.0158
     26 C           5.5078   44.6167    7.3169 C.ar    1  UNL1       -0.0029
     27 C           4.2901   44.4514    7.9806 C.ar    1  UNL1       -0.0218
     28 C           3.1033   45.2429    7.5649 C.3     1  UNL1        0.0310
     29 C           4.1892   43.5445    9.0377 C.ar    1  UNL1       -0.0029
     30 C           5.3059   42.8015    9.4295 C.ar    1  UNL1        0.0158
@<TRIPOS>BOND
     1    22    23    1
     2    25    26   ar
     3    27    29   ar
     4    28    27    1
     5    30    24   ar
     6     1     5   ar
     7     2     7    1
     8     2     5   ar
     9    10     6    1
    10    10    11    1
    11    12    11    1
    12    13    15   ar
    13    14    13    1
    14    16    17   ar
    15    18    12   ar
    16    23    24    1
    17     3     4   ar
    18     7     6   am
    19    19    23    1
    20    19     1    1
    21    24    25   ar
    22    26    27   ar
    23    29    30   ar
    24     1     3   ar
    25     2     4   ar
    26     6     8    2
    27    12    13   ar
    28    15    16   ar
    29    17    18   ar
    30    19    20    2
    31    19    21    2
    32     7     9    1
@<TRIPOS>MOLECULE
MolPort-007-723-587 ChemDiv-E157-6434 MCULE-8263968904 PubChem-22518109 ZINC000009405031 ZINC09405031
 30 32 0 0 0
SMALL
GASTEIGER

@<TRIPOS>ATOM
      1 C          11.4211   42.0005    8.1402 C.ar    1  UNL1        0.2593
      2 C           9.4277   41.6177    9.3965 C.ar    1  UNL1        0.1894
      3 N          11.3926   42.6823    9.3059 N.ar    1  UNL1       -0.1187
      4 N          10.2798   42.4711   10.0064 N.ar    1  UNL1       -0.1239
      5 S          10.0315   41.0741    7.9232 S.2     1  UNL1       -0.0102
      6 C           7.6425   41.6371   11.2000 C.2     1  UNL1        0.2721
      7 N           8.1623   41.2214    9.9333 N.am    1  UNL1       -0.2597
      8 O           8.2979   42.4063   11.9522 O.2     1  UNL1       -0.2707
      9 H           7.6068   40.6169    9.3900 H       1  UNL1        0.1569
     10 C           6.2888   41.1851   11.6156 C.3     1  UNL1        0.2897
     11 O           5.4532   41.0729   10.4722 O.3     1  UNL1       -0.4659
     12 C           4.9723   42.1463    9.7052 C.ar    1  UNL1        0.1352
     13 C           3.6701   42.7046    9.8228 C.ar    1  UNL1        0.0121
     14 C           2.6449   42.2038   10.7814 C.3     1  UNL1        0.0342
     15 C           3.2998   43.7750    9.0013 C.ar    1  UNL1       -0.0013
     16 C           4.1950   44.2999    8.0686 C.ar    1  UNL1       -0.0001
     17 C           5.4728   43.7556    7.9486 C.ar    1  UNL1        0.0031
     18 C           5.8545   42.6870    8.7614 C.ar    1  UNL1        0.0366
     19 S          12.7633   42.0521    7.0160 S.O2    1  UNL1        0.1010
     20 O          12.4383   41.1886    5.8293 O.2     1  UNL1       -0.1477
     21 O          12.9820   43.4617    6.5430 O.2     1  UNL1       -0.1477
     22 C          14.1300   40.2158    8.5245 C.3     1  UNL1        0.1392
     23 N          14.2043   41.4770    7.7997 N.pl3   1  UNL1       -0.1870
     24 C          15.4352   42.2270    7.7608 C.ar    1  UNL1        0.0689
     25 C          16.5234   41.8561    8.5695 C.ar    1  UNL1        0.0158
     26 C          17.7172   42.5823    8.5347 C.ar    1  UNL1       -0.0029
     27 C          17.8377   43.6879    7.6900 C.ar    1  UNL1       -0.0218
     28 C          19.1057   44.4618    7.6543 C.3     1  UNL1        0.0310
     29 C          16.7646   44.0683    6.8814 C.ar    1  UNL1       -0.0029
     30 C          15.5717   43.3414    6.9164 C.ar    1  UNL1        0.0158
@<TRIPOS>BOND
     1    22    23    1
     2    25    26   ar
     3    27    29   ar
     4    28    27    1
     5    30    24   ar
     6     1     5   ar
     7     2     7    1
     8     2     5   ar
     9    10     6    1
    10    10    11    1
    11    12    11    1
    12    13    15   ar
    13    14    13    1
    14    16    17   ar
    15    18    12   ar
    16    23    24    1
    17     3     4   ar
    18     7     6   am
    19    19    23    1
    20    19     1    1
    21    24    25   ar
    22    26    27   ar
    23    29    30   ar
    24     1     3   ar
    25     2     4   ar
    26     6     8    2
    27    12    13   ar
    28    15    16   ar
    29    17    18   ar
    30    19    20    2
    31    19    21    2
    32     7     9    1
@<TRIPOS>MOLECULE
MolPort-007-723-587 ChemDiv-E157-6434 MCULE-8263968904 PubChem-22518109 ZINC000009405031 ZINC09405031
 30 32 0 0 0
SMALL
GASTEIGER

@<TRIPOS>ATOM
      1 C          13.1069   37.6485    9.6283 C.ar    1  UNL1        0.2593
      2 C          14.1850   35.6246    8.9646 C.ar    1  UNL1        0.1894
      3 N          12.6283   36.5604   10.2698 N.ar    1  UNL1       -0.1187
      4 N          13.2277   35.4306    9.8985 N.ar    1  UNL1       -0.1239
      5 S          14.3337   37.2475    8.5464 S.2     1  UNL1       -0.0102
      6 C          16.3773   34.3907    8.6314 C.2     1  UNL1        0.2721
      7 N          14.9788   34.5796    8.3950 N.am    1  UNL1       -0.2597
      8 O          17.0216   35.1689    9.3839 O.2     1  UNL1       -0.2707
      9 H          14.5287   33.9421    7.7949 H       1  UNL1        0.1569
     10 C          17.0710   33.2323    8.0097 C.3     1  UNL1        0.2897
     11 O          17.0737   33.3820    6.5970 O.3     1  UNL1       -0.4659
     12 C          17.6357   34.4587    5.8922 C.ar    1  UNL1        0.1352
     13 C          16.9336   35.2678    4.9576 C.ar    1  UNL1        0.0121
     14 C          15.5008   35.0604    4.6045 C.3     1  UNL1        0.0342
     15 C          17.5998   36.3154    4.3121 C.ar    1  UNL1       -0.0013
     16 C          18.9452   36.5739    4.5763 C.ar    1  UNL1       -0.0001
     17 C          19.6386   35.7830    5.4912 C.ar    1  UNL1        0.0031
     18 C          18.9860   34.7343    6.1413 C.ar    1  UNL1        0.0366
     19 S          12.5385   39.2790    9.9220 S.O2    1  UNL1        0.1010
     20 O          11.0719   39.2323   10.2482 O.2     1  UNL1       -0.1477
     21 O          13.2744   39.8762   11.0883 O.2     1  UNL1       -0.1477
     22 C          11.7634   40.2908    7.4949 C.3     1  UNL1        0.1392
     23 N          12.8081   40.2552    8.5093 N.pl3   1  UNL1       -0.1870
     24 C          14.0331   40.9928    8.3242 C.ar    1  UNL1        0.0689
     25 C          14.1119   42.0174    7.3651 C.ar    1  UNL1        0.0158
     26 C          15.2986   42.7331    7.1827 C.ar    1  UNL1       -0.0029
     27 C          16.4209   42.4335    7.9580 C.ar    1  UNL1       -0.0218
     28 C          17.6835   43.1924    7.7630 C.3     1  UNL1        0.0310
     29 C          16.3574   41.4178    8.9142 C.ar    1  UNL1       -0.0029
     30 C          15.1704   40.7032    9.0962 C.ar    1  UNL1        0.0158
@<TRIPOS>BOND
     1    22    23    1
     2    25    26   ar
     3    27    29   ar
     4    28    27    1
     5    30    24   ar
     6     1     5   ar
     7     2     7    1
     8     2     5   ar
     9    10     6    1
    10    10    11    1
    11    12    11    1
    12    13    15   ar
    13    14    13    1
    14    16    17   ar
    15    18    12   ar
    16    23    24    1
    17     3     4   ar
    18     7     6   am
    19    19    23    1
    20    19     1    1
    21    24    25   ar
    22    26    27   ar
    23    29    30   ar
    24     1     3   ar
    25     2     4   ar
    26     6     8    2
    27    12    13   ar
    28    15    16   ar
    29    17    18   ar
    30    19    20    2
    31    19    21    2
    32     7     9    1
@<TRIPOS>MOLECULE
MolPort-007-723-587 ChemDiv-E157-6434 MCULE-8263968904 PubChem-22518109 ZINC000009405031 ZINC09405031
 30 32 0 0 0
SMALL
GASTEIGER

@<TRIPOS>ATOM
      1 C          12.2529   41.0111    9.8802 C.ar    1  UNL1        0.2593
      2 C          14.3938   39.9973    9.5840 C.ar    1  UNL1        0.1894
      3 N          12.9291   41.5052    8.8203 N.ar    1  UNL1       -0.1187
      4 N          14.1245   40.9417    8.6557 N.ar    1  UNL1       -0.1239
      5 S          13.1294   39.8152   10.6789 S.2     1  UNL1       -0.0102
      6 C          16.1669   38.6695   10.8221 C.2     1  UNL1        0.2721
      7 N          15.6070   39.2410    9.6359 N.am    1  UNL1       -0.2597
      8 O          15.6032   38.8075   11.9402 O.2     1  UNL1       -0.2707
      9 H          16.0937   39.1034    8.7912 H       1  UNL1        0.1569
     10 C          17.4133   37.8655   10.7249 C.3     1  UNL1        0.2897
     11 O          17.0962   36.5455   10.3062 O.3     1  UNL1       -0.4659
     12 C          17.0342   36.1054    8.9742 C.ar    1  UNL1        0.1352
     13 C          15.8333   35.7885    8.2824 C.ar    1  UNL1        0.0121
     14 C          14.4805   35.8792    8.9008 C.3     1  UNL1        0.0342
     15 C          15.8944   35.3563    6.9530 C.ar    1  UNL1       -0.0013
     16 C          17.1212   35.2335    6.2997 C.ar    1  UNL1       -0.0001
     17 C          18.3018   35.5421    6.9737 C.ar    1  UNL1        0.0031
     18 C          18.2548   35.9735    8.3003 C.ar    1  UNL1        0.0366
     19 S          10.6442   41.5323   10.3363 S.O2    1  UNL1        0.1010
     20 O          10.2729   40.8827   11.6400 O.2     1  UNL1       -0.1477
     21 O          10.6201   43.0243   10.5153 O.2     1  UNL1       -0.1477
     22 C           9.8219   39.9186    8.2783 C.3     1  UNL1        0.1392
     23 N           9.5109   41.0820    9.0975 N.pl3   1  UNL1       -0.1870
     24 C           8.3083   41.8420    8.8626 C.ar    1  UNL1        0.0689
     25 C           7.1759   41.6560    9.6744 C.ar    1  UNL1        0.0158
     26 C           6.0084   42.3904    9.4479 C.ar    1  UNL1       -0.0029
     27 C           5.9592   43.3205    8.4073 C.ar    1  UNL1       -0.0218
     28 C           4.7176   44.0998    8.1645 C.3     1  UNL1        0.0310
     29 C           7.0764   43.5152    7.5923 C.ar    1  UNL1       -0.0029
     30 C           8.2433   42.7810    7.8198 C.ar    1  UNL1        0.0158
@<TRIPOS>BOND
     1    22    23    1
     2    25    26   ar
     3    27    29   ar
     4    28    27    1
     5    30    24   ar
     6     1     5   ar
     7     2     7    1
     8     2     5   ar
     9    10     6    1
    10    10    11    1
    11    12    11    1
    12    13    15   ar
    13    14    13    1
    14    16    17   ar
    15    18    12   ar
    16    23    24    1
    17     3     4   ar
    18     7     6   am
    19    19    23    1
    20    19     1    1
    21    24    25   ar
    22    26    27   ar
    23    29    30   ar
    24     1     3   ar
    25     2     4   ar
    26     6     8    2
    27    12    13   ar
    28    15    16   ar
    29    17    18   ar
    30    19    20    2
    31    19    21    2
    32     7     9    1
@<TRIPOS>MOLECULE
MolPort-007-723-587 ChemDiv-E157-6434 MCULE-8263968904 PubChem-22518109 ZINC000009405031 ZINC09405031
 30 32 0 0 0
SMALL
GASTEIGER

@<TRIPOS>ATOM
      1 C           9.3680   41.6015    9.4003 C.ar    1  UNL1        0.2593
      2 C          11.6645   41.0558    9.7568 C.ar    1  UNL1        0.1894
      3 N           9.5365   40.4912   10.1509 N.ar    1  UNL1       -0.1187
      4 N          10.8174   40.1848   10.3484 N.ar    1  UNL1       -0.1239
      5 S          10.8414   42.2753    8.9407 S.2     1  UNL1       -0.0102
      6 C          13.8938   40.1745    8.9243 C.2     1  UNL1        0.2721
      7 N          13.0905   40.9573    9.8128 N.am    1  UNL1       -0.2597
      8 O          13.3707   39.4929    8.0031 O.2     1  UNL1       -0.2707
      9 H          13.5545   41.4668   10.5159 H       1  UNL1        0.1569
     10 C          15.3732   40.1993    9.0670 C.3     1  UNL1        0.2897
     11 O          15.8195   41.5449    9.1581 O.3     1  UNL1       -0.4659
     12 C          16.3082   42.3159    8.0912 C.ar    1  UNL1        0.1352
     13 C          15.4959   42.9348    7.1021 C.ar    1  UNL1        0.0121
     14 C          14.0096   42.8296    7.0761 C.3     1  UNL1        0.0342
     15 C          16.0962   43.6800    6.0812 C.ar    1  UNL1       -0.0013
     16 C          17.4830   43.8219    6.0241 C.ar    1  UNL1       -0.0001
     17 C          18.2843   43.2164    6.9909 C.ar    1  UNL1        0.0031
     18 C          17.6982   42.4696    8.0141 C.ar    1  UNL1        0.0366
     19 S           7.8017   42.2712    8.9926 S.O2    1  UNL1        0.1010
     20 O           6.7313   41.4308    9.6310 O.2     1  UNL1       -0.1477
     21 O           7.6919   43.6750    9.5177 O.2     1  UNL1       -0.1477
     22 C           6.6590   43.2348    6.6945 C.3     1  UNL1        0.1392
     23 N           7.6036   42.2846    7.2657 N.pl3   1  UNL1       -0.1870
     24 C           8.3283   41.3726    6.4158 C.ar    1  UNL1        0.0689
     25 C           7.8560   40.0659    6.2036 C.ar    1  UNL1        0.0158
     26 C           8.5573   39.1794    5.3813 C.ar    1  UNL1       -0.0029
     27 C           9.7392   39.5892    4.7605 C.ar    1  UNL1       -0.0218
     28 C          10.4865   38.6466    3.8882 C.3     1  UNL1        0.0310
     29 C          10.2207   40.8843    4.9628 C.ar    1  UNL1       -0.0029
     30 C           9.5187   41.7700    5.7846 C.ar    1  UNL1        0.0158
@<TRIPOS>BOND
     1    22    23    1
     2    25    26   ar
     3    27    29   ar
     4    28    27    1
     5    30    24   ar
     6     1     5   ar
     7     2     7    1
     8     2     5   ar
     9    10     6    1
    10    10    11    1
    11    12    11    1
    12    13    15   ar
    13    14    13    1
    14    16    17   ar
    15    18    12   ar
    16    23    24    1
    17     3     4   ar
    18     7     6   am
    19    19    23    1
    20    19     1    1
    21    24    25   ar
    22    26    27   ar
    23    29    30   ar
    24     1     3   ar
    25     2     4   ar
    26     6     8    2
    27    12    13   ar
    28    15    16   ar
    29    17    18   ar
    30    19    20    2
    31    19    21    2
    32     7     9    1
@<TRIPOS>MOLECULE
MolPort-007-723-587 ChemDiv-E157-6434 MCULE-8263968904 PubChem-22518109 ZINC000009405031 ZINC09405031
 30 32 0 0 0
SMALL
GASTEIGER

@<TRIPOS>ATOM
      1 C           9.5364   40.7510    8.1924 C.ar    1  UNL1        0.2593
      2 C          11.8584   40.6802    8.7421 C.ar    1  UNL1        0.1894
      3 N           9.9360   39.5415    8.6419 N.ar    1  UNL1       -0.1187
      4 N          11.2318   39.5005    8.9467 N.ar    1  UNL1       -0.1239
      5 S          10.8066   41.8564    8.1582 S.2     1  UNL1       -0.0102
      6 C          14.2756   39.9181    8.8683 C.2     1  UNL1        0.2721
      7 N          13.2491   40.9075    8.9890 N.am    1  UNL1       -0.2597
      8 O          14.0042   38.7363    8.5269 O.2     1  UNL1       -0.2707
      9 H          13.5204   41.8134    9.2627 H       1  UNL1        0.1569
     10 C          15.6906   40.3034    9.1109 C.3     1  UNL1        0.2897
     11 O          15.8102   41.7187    9.0788 O.3     1  UNL1       -0.4659
     12 C          16.3923   42.4645    8.0412 C.ar    1  UNL1        0.1352
     13 C          15.6738   43.0415    6.9587 C.ar    1  UNL1        0.0121
     14 C          14.1986   42.9140    6.7908 C.3     1  UNL1        0.0342
     15 C          16.3627   43.7646    5.9786 C.ar    1  UNL1       -0.0013
     16 C          17.7467   43.9250    6.0529 C.ar    1  UNL1       -0.0001
     17 C          18.4562   43.3604    7.1118 C.ar    1  UNL1        0.0031
     18 C          17.7812   42.6360    8.0956 C.ar    1  UNL1        0.0366
     19 S           7.8862   41.1233    7.7387 S.O2    1  UNL1        0.1010
     20 O           7.8882   41.7721    6.3828 O.2     1  UNL1       -0.1477
     21 O           7.0761   39.8594    7.6688 O.2     1  UNL1       -0.1477
     22 C           7.7543   42.2031   10.2551 C.3     1  UNL1        0.1392
     23 N           7.1842   42.1936    8.9148 N.pl3   1  UNL1       -0.1870
     24 C           6.0574   43.0338    8.5930 C.ar    1  UNL1        0.0689
     25 C           6.2309   44.1978    7.8245 C.ar    1  UNL1        0.0158
     26 C           5.1405   45.0148    7.5123 C.ar    1  UNL1       -0.0029
     27 C           3.8629   44.6770    7.9641 C.ar    1  UNL1       -0.0218
     28 C           2.7037   45.5462    7.6346 C.3     1  UNL1        0.0310
     29 C           3.6757   43.5238    8.7291 C.ar    1  UNL1       -0.0029
     30 C           4.7663   42.7074    9.0403 C.ar    1  UNL1        0.0158
@<TRIPOS>BOND
     1    22    23    1
     2    25    26   ar
     3    27    29   ar
     4    28    27    1
     5    30    24   ar
     6     1     5   ar
     7     2     7    1
     8     2     5   ar
     9    10     6    1
    10    10    11    1
    11    12    11    1
    12    13    15   ar
    13    14    13    1
    14    16    17   ar
    15    18    12   ar
    16    23    24    1
    17     3     4   ar
    18     7     6   am
    19    19    23    1
    20    19     1    1
    21    24    25   ar
    22    26    27   ar
    23    29    30   ar
    24     1     3   ar
    25     2     4   ar
    26     6     8    2
    27    12    13   ar
    28    15    16   ar
    29    17    18   ar
    30    19    20    2
    31    19    21    2
    32     7     9    1
