@<TRIPOS>MOLECULE
MolPort-007-713-435 ChemDiv-E002-0304 MCULE-6186887416 PubChem-22509879 ZINC000006768036
 28 30 0 0 0
SMALL
GASTEIGER

@<TRIPOS>ATOM
      1 C           8.1688   41.6271    9.4437 C.ar    1  UNL1        0.1905
      2 C          10.0243   41.5219    7.9299 C.ar    1  UNL1        0.1904
      3 N           7.9790   40.7590    8.4229 N.ar    1  UNL1       -0.1239
      4 N           9.0124   40.6954    7.5851 N.ar    1  UNL1       -0.1240
      5 S           9.6706   42.3957    9.3220 S.2     1  UNL1       -0.0151
      6 C          12.5204   41.9513    7.7693 C.2     1  UNL1        0.3097
      7 N          11.2444   41.6536    7.1945 N.am    1  UNL1       -0.2468
      8 N          13.6640   42.0408    6.9140 N.am    1  UNL1       -0.2656
      9 O          12.6370   42.1506    9.0094 O.2     1  UNL1       -0.2521
     10 H          11.2029   41.5301    6.2187 H       1  UNL1        0.1584
     11 H          13.5197   41.9795    5.9421 H       1  UNL1        0.1565
     12 C          15.0055   42.2140    7.3843 C.ar    1  UNL1        0.0859
     13 C          15.4223   41.4404    8.4734 C.ar    1  UNL1        0.0178
     14 C          16.7450   41.4905    8.9170 C.ar    1  UNL1        0.0015
     15 C          17.6656   42.3152    8.2704 C.ar    1  UNL1        0.0032
     16 C          17.2565   43.1125    7.1999 C.ar    1  UNL1        0.0382
     17 C          15.9266   43.0976    6.7636 C.ar    1  UNL1        0.1521
     18 C          14.3883   44.7690    5.7677 C.3     1  UNL1        0.2525
     19 O          15.5729   43.9852    5.7409 O.3     1  UNL1       -0.4702
     20 N           7.1611   41.9055   10.4350 N.pl3   1  UNL1       -0.2659
     21 C           5.7497   41.8899   10.1351 C.ar    1  UNL1        0.0531
     22 C           4.9353   40.8252   10.5554 C.ar    1  UNL1        0.0149
     23 C           3.5744   40.8008   10.2380 C.ar    1  UNL1        0.0013
     24 C           3.0135   41.8373    9.4885 C.ar    1  UNL1        0.0001
     25 C           3.8140   42.8959    9.0533 C.ar    1  UNL1        0.0013
     26 C           5.1748   42.9197    9.3712 C.ar    1  UNL1        0.0149
     27 C           7.5965   42.2043   11.7970 C.3     1  UNL1        0.0975
     28 C           8.1689   40.9584   12.4479 C.3     1  UNL1        0.0236
@<TRIPOS>BOND
     1     1    20    1
     2     1     5   ar
     3    27    20    1
     4    27    28    1
     5    22    23   ar
     6    24    25   ar
     7    26    21   ar
     8     2     7    1
     9     2     5   ar
    10     6     8   am
    11    13    14   ar
    12    15    16   ar
    13    17    19    1
    14    17    12   ar
    15    18    19    1
    16    20    21    1
    17     3     4   ar
    18     7     6   am
    19     8    12    1
    20     1     3   ar
    21    21    22   ar
    22    23    24   ar
    23    25    26   ar
    24     2     4   ar
    25     6     9    2
    26    12    13   ar
    27    14    15   ar
    28    16    17   ar
    29     7    10    1
    30     8    11    1
@<TRIPOS>MOLECULE
MolPort-007-713-435 ChemDiv-E002-0304 MCULE-6186887416 PubChem-22509879 ZINC000006768036
 28 30 0 0 0
SMALL
GASTEIGER

@<TRIPOS>ATOM
      1 C           8.0927   41.7463    8.8769 C.ar    1  UNL1        0.1905
      2 C          10.1386   41.2714    7.7217 C.ar    1  UNL1        0.1904
      3 N           8.0214   40.6472    8.0904 N.ar    1  UNL1       -0.1239
      4 N           9.1599   40.3792    7.4534 N.ar    1  UNL1       -0.1240
      5 S           9.6200   42.4671    8.7839 S.2     1  UNL1       -0.0151
      6 C          12.6049   41.8698    7.7072 C.2     1  UNL1        0.3097
      7 N          11.4537   41.2193    7.1607 N.am    1  UNL1       -0.2468
      8 N          13.8658   41.7210    7.0474 N.am    1  UNL1       -0.2656
      9 O          12.5107   42.5800    8.7454 O.2     1  UNL1       -0.2521
     10 H          11.5757   40.6961    6.3357 H       1  UNL1        0.1584
     11 H          13.8830   41.2441    6.1863 H       1  UNL1        0.1565
     12 C          15.1043   42.2230    7.5621 C.ar    1  UNL1        0.0859
     13 C          15.7969   41.4333    8.4868 C.ar    1  UNL1        0.0178
     14 C          17.0553   41.8199    8.9512 C.ar    1  UNL1        0.0015
     15 C          17.6348   43.0021    8.4902 C.ar    1  UNL1        0.0032
     16 C          16.9429   43.8127    7.5884 C.ar    1  UNL1        0.0382
     17 C          15.6669   43.4550    7.1379 C.ar    1  UNL1        0.1521
     18 C          14.8411   44.1510    4.9050 C.3     1  UNL1        0.2525
     19 O          15.0011   44.3583    6.3013 O.3     1  UNL1       -0.4702
     20 N           6.9647   42.2610    9.6106 N.pl3   1  UNL1       -0.2659
     21 C           5.9444   43.0765    8.9972 C.ar    1  UNL1        0.0531
     22 C           6.2704   44.0067    7.9963 C.ar    1  UNL1        0.0149
     23 C           5.2828   44.8142    7.4253 C.ar    1  UNL1        0.0013
     24 C           3.9583   44.7070    7.8551 C.ar    1  UNL1        0.0001
     25 C           3.6220   43.7954    8.8584 C.ar    1  UNL1        0.0013
     26 C           4.6101   42.9880    9.4289 C.ar    1  UNL1        0.0149
     27 C           6.8543   41.9295   11.0290 C.3     1  UNL1        0.0975
     28 C           5.7748   40.8835   11.2388 C.3     1  UNL1        0.0236
@<TRIPOS>BOND
     1     1    20    1
     2     1     5   ar
     3    27    20    1
     4    27    28    1
     5    22    23   ar
     6    24    25   ar
     7    26    21   ar
     8     2     7    1
     9     2     5   ar
    10     6     8   am
    11    13    14   ar
    12    15    16   ar
    13    17    19    1
    14    17    12   ar
    15    18    19    1
    16    20    21    1
    17     3     4   ar
    18     7     6   am
    19     8    12    1
    20     1     3   ar
    21    21    22   ar
    22    23    24   ar
    23    25    26   ar
    24     2     4   ar
    25     6     9    2
    26    12    13   ar
    27    14    15   ar
    28    16    17   ar
    29     7    10    1
    30     8    11    1
@<TRIPOS>MOLECULE
MolPort-007-713-435 ChemDiv-E002-0304 MCULE-6186887416 PubChem-22509879 ZINC000006768036
 28 30 0 0 0
SMALL
GASTEIGER

@<TRIPOS>ATOM
      1 C           8.4204   41.7873    9.5773 C.ar    1  UNL1        0.1905
      2 C          10.3159   41.5805    8.1247 C.ar    1  UNL1        0.1904
      3 N           8.1659   42.1747    8.3057 N.ar    1  UNL1       -0.1239
      4 N           9.2170   42.0538    7.4968 N.ar    1  UNL1       -0.1240
      5 S          10.0270   41.2891    9.7552 S.2     1  UNL1       -0.0151
      6 C          12.7482   42.1647    7.6964 C.2     1  UNL1        0.3097
      7 N          11.5792   41.3663    7.4884 N.am    1  UNL1       -0.2468
      8 N          13.9528   41.8273    7.0017 N.am    1  UNL1       -0.2656
      9 O          12.7169   43.1634    8.4662 O.2     1  UNL1       -0.2521
     10 H          11.6496   40.6121    6.8595 H       1  UNL1        0.1584
     11 H          13.9139   41.1049    6.3339 H       1  UNL1        0.1565
     12 C          15.2114   42.4754    7.2177 C.ar    1  UNL1        0.0859
     13 C          15.4924   43.6249    6.4707 C.ar    1  UNL1        0.0178
     14 C          16.6575   44.3577    6.7040 C.ar    1  UNL1        0.0015
     15 C          17.5524   43.9471    7.6920 C.ar    1  UNL1        0.0032
     16 C          17.2976   42.7871    8.4257 C.ar    1  UNL1        0.0382
     17 C          16.1498   42.0238    8.1820 C.ar    1  UNL1        0.1521
     18 C          16.9584   40.3715    9.8457 C.3     1  UNL1        0.2525
     19 O          16.0046   40.8299    8.8979 O.3     1  UNL1       -0.4702
     20 N           7.4508   41.8896   10.6380 N.pl3   1  UNL1       -0.2659
     21 C           6.0431   41.6496   10.4307 C.ar    1  UNL1        0.0531
     22 C           5.3591   42.2515    9.3614 C.ar    1  UNL1        0.0149
     23 C           3.9896   42.0384    9.1815 C.ar    1  UNL1        0.0013
     24 C           3.2858   41.2273   10.0745 C.ar    1  UNL1        0.0001
     25 C           3.9505   40.6326   11.1494 C.ar    1  UNL1        0.0013
     26 C           5.3201   40.8460   11.3286 C.ar    1  UNL1        0.0149
     27 C           7.9242   42.2409   11.9745 C.3     1  UNL1        0.0975
     28 C           8.5691   41.0358   12.6342 C.3     1  UNL1        0.0236
@<TRIPOS>BOND
     1     1    20    1
     2     1     5   ar
     3    27    20    1
     4    27    28    1
     5    22    23   ar
     6    24    25   ar
     7    26    21   ar
     8     2     7    1
     9     2     5   ar
    10     6     8   am
    11    13    14   ar
    12    15    16   ar
    13    17    19    1
    14    17    12   ar
    15    18    19    1
    16    20    21    1
    17     3     4   ar
    18     7     6   am
    19     8    12    1
    20     1     3   ar
    21    21    22   ar
    22    23    24   ar
    23    25    26   ar
    24     2     4   ar
    25     6     9    2
    26    12    13   ar
    27    14    15   ar
    28    16    17   ar
    29     7    10    1
    30     8    11    1
@<TRIPOS>MOLECULE
MolPort-007-713-435 ChemDiv-E002-0304 MCULE-6186887416 PubChem-22509879 ZINC000006768036
 28 30 0 0 0
SMALL
GASTEIGER

@<TRIPOS>ATOM
      1 C          12.6770   40.6080    9.5164 C.ar    1  UNL1        0.1905
      2 C          10.6416   41.7971    9.9511 C.ar    1  UNL1        0.1904
      3 N          12.4790   41.6547    8.6816 N.ar    1  UNL1       -0.1239
      4 N          11.3514   42.3196    8.9268 N.ar    1  UNL1       -0.1240
      5 S          11.3976   40.4482   10.6112 S.2     1  UNL1       -0.0151
      6 C           8.1053   41.8859    9.9509 C.2     1  UNL1        0.3097
      7 N           9.3900   42.3147   10.4120 N.am    1  UNL1       -0.2468
      8 N           6.9313   42.4825   10.5108 N.am    1  UNL1       -0.2656
      9 O           8.0045   41.0078    9.0510 O.2     1  UNL1       -0.2521
     10 H           9.4147   43.0197   11.0988 H       1  UNL1        0.1584
     11 H           7.0485   43.2337   11.1362 H       1  UNL1        0.1565
     12 C           5.5966   42.0544   10.2176 C.ar    1  UNL1        0.0859
     13 C           5.1153   40.9159   10.8738 C.ar    1  UNL1        0.0178
     14 C           3.7919   40.5044   10.7064 C.ar    1  UNL1        0.0015
     15 C           2.9352   41.2327    9.8810 C.ar    1  UNL1        0.0032
     16 C           3.4100   42.3546    9.1992 C.ar    1  UNL1        0.0382
     17 C           4.7427   42.7616    9.3315 C.ar    1  UNL1        0.1521
     18 C           4.2708   44.7068    7.8668 C.3     1  UNL1        0.2525
     19 O           5.1673   43.8442    8.5526 O.3     1  UNL1       -0.4702
     20 N          13.7974   39.7101    9.3976 N.pl3   1  UNL1       -0.2659
     21 C          13.6772   38.2860    9.5967 C.ar    1  UNL1        0.0531
     22 C          14.2522   37.3804    8.6897 C.ar    1  UNL1        0.0149
     23 C          14.1090   36.0020    8.8716 C.ar    1  UNL1        0.0013
     24 C          13.3811   35.5130    9.9586 C.ar    1  UNL1        0.0001
     25 C          12.7933   36.4021   10.8613 C.ar    1  UNL1        0.0013
     26 C          12.9371   37.7804   10.6789 C.ar    1  UNL1        0.0149
     27 C          15.0999   40.2735    9.0514 C.3     1  UNL1        0.0975
     28 C          16.1412   39.8472   10.0701 C.3     1  UNL1        0.0236
@<TRIPOS>BOND
     1     1    20    1
     2     1     5   ar
     3    27    20    1
     4    27    28    1
     5    22    23   ar
     6    24    25   ar
     7    26    21   ar
     8     2     7    1
     9     2     5   ar
    10     6     8   am
    11    13    14   ar
    12    15    16   ar
    13    17    19    1
    14    17    12   ar
    15    18    19    1
    16    20    21    1
    17     3     4   ar
    18     7     6   am
    19     8    12    1
    20     1     3   ar
    21    21    22   ar
    22    23    24   ar
    23    25    26   ar
    24     2     4   ar
    25     6     9    2
    26    12    13   ar
    27    14    15   ar
    28    16    17   ar
    29     7    10    1
    30     8    11    1
@<TRIPOS>MOLECULE
MolPort-007-713-435 ChemDiv-E002-0304 MCULE-6186887416 PubChem-22509879 ZINC000006768036
 28 30 0 0 0
SMALL
GASTEIGER

@<TRIPOS>ATOM
      1 C           8.0153   42.3125    7.1619 C.ar    1  UNL1        0.1905
      2 C          10.2700   41.6302    6.7191 C.ar    1  UNL1        0.1904
      3 N           8.2784   42.1548    5.8438 N.ar    1  UNL1       -0.1239
      4 N           9.5292   41.7694    5.5976 N.ar    1  UNL1       -0.1240
      5 S           9.3852   41.9944    8.1016 S.2     1  UNL1       -0.0151
      6 C          12.7409   42.0953    7.0641 C.2     1  UNL1        0.3097
      7 N          11.6454   41.2365    6.7337 N.am    1  UNL1       -0.2468
      8 N          14.0692   41.5634    7.0515 N.am    1  UNL1       -0.2656
      9 O          12.5450   43.3092    7.3455 O.2     1  UNL1       -0.2521
     10 H          11.8538   40.3035    6.4984 H       1  UNL1        0.1584
     11 H          14.1944   40.6413    6.7301 H       1  UNL1        0.1565
     12 C          15.2278   42.2895    7.4773 C.ar    1  UNL1        0.0859
     13 C          15.4577   43.5473    6.9084 C.ar    1  UNL1        0.0178
     14 C          16.5133   44.3462    7.3514 C.ar    1  UNL1        0.0015
     15 C          17.3484   43.8935    8.3728 C.ar    1  UNL1        0.0032
     16 C          17.1467   42.6294    8.9301 C.ar    1  UNL1        0.0382
     17 C          16.1125   41.8033    8.4750 C.ar    1  UNL1        0.1521
     18 C          14.9033   40.0666    9.7687 C.3     1  UNL1        0.2525
     19 O          16.0246   40.5182    9.0224 O.3     1  UNL1       -0.4702
     20 N           6.7476   42.7838    7.6585 N.pl3   1  UNL1       -0.2659
     21 C           6.0706   42.1660    8.7731 C.ar    1  UNL1        0.0531
     22 C           4.7196   41.7930    8.6789 C.ar    1  UNL1        0.0149
     23 C           4.0606   41.2209    9.7706 C.ar    1  UNL1        0.0013
     24 C           4.7432   41.0230   10.9729 C.ar    1  UNL1        0.0001
     25 C           6.0833   41.4006   11.0847 C.ar    1  UNL1        0.0013
     26 C           6.7417   41.9726    9.9925 C.ar    1  UNL1        0.0149
     27 C           6.1374   43.9398    7.0065 C.3     1  UNL1        0.0975
     28 C           5.7012   44.9562    8.0459 C.3     1  UNL1        0.0236
@<TRIPOS>BOND
     1     1    20    1
     2     1     5   ar
     3    27    20    1
     4    27    28    1
     5    22    23   ar
     6    24    25   ar
     7    26    21   ar
     8     2     7    1
     9     2     5   ar
    10     6     8   am
    11    13    14   ar
    12    15    16   ar
    13    17    19    1
    14    17    12   ar
    15    18    19    1
    16    20    21    1
    17     3     4   ar
    18     7     6   am
    19     8    12    1
    20     1     3   ar
    21    21    22   ar
    22    23    24   ar
    23    25    26   ar
    24     2     4   ar
    25     6     9    2
    26    12    13   ar
    27    14    15   ar
    28    16    17   ar
    29     7    10    1
    30     8    11    1
@<TRIPOS>MOLECULE
MolPort-007-713-435 ChemDiv-E002-0304 MCULE-6186887416 PubChem-22509879 ZINC000006768036
 28 30 0 0 0
SMALL
GASTEIGER

@<TRIPOS>ATOM
      1 C           7.3016   42.4699    7.6174 C.ar    1  UNL1        0.1905
      2 C           9.4424   41.6135    6.9624 C.ar    1  UNL1        0.1904
      3 N           7.4733   42.4253    6.2757 N.ar    1  UNL1       -0.1239
      4 N           8.6602   41.9434    5.9112 N.ar    1  UNL1       -0.1240
      5 S           8.6792   41.9185    8.4291 S.2     1  UNL1       -0.0151
      6 C          11.9588   41.7597    7.2575 C.2     1  UNL1        0.3097
      7 N          10.7664   41.0835    6.8478 N.am    1  UNL1       -0.2468
      8 N          13.2201   41.1035    7.0964 N.am    1  UNL1       -0.2656
      9 O          11.9054   42.9249    7.7376 O.2     1  UNL1       -0.2521
     10 H          10.8644   40.1851    6.4573 H       1  UNL1        0.1584
     11 H          13.2339   40.2383    6.6267 H       1  UNL1        0.1565
     12 C          14.4637   41.6274    7.5759 C.ar    1  UNL1        0.0859
     13 C          15.0609   40.9952    8.6723 C.ar    1  UNL1        0.0178
     14 C          16.3192   41.3953    9.1255 C.ar    1  UNL1        0.0015
     15 C          16.9941   42.4324    8.4816 C.ar    1  UNL1        0.0032
     16 C          16.3978   43.0896    7.4038 C.ar    1  UNL1        0.0382
     17 C          15.1232   42.7214    6.9575 C.ar    1  UNL1        0.1521
     18 C          14.8589   44.8521    5.7156 C.3     1  UNL1        0.2525
     19 O          14.5559   43.4804    5.9274 O.3     1  UNL1       -0.4702
     20 N           6.1210   43.0122    8.2401 N.pl3   1  UNL1       -0.2659
     21 C           5.3524   42.2815    9.2187 C.ar    1  UNL1        0.0531
     22 C           5.9733   41.7075   10.3404 C.ar    1  UNL1        0.0149
     23 C           5.2289   40.9766   11.2706 C.ar    1  UNL1        0.0013
     24 C           3.8555   40.8038   11.0851 C.ar    1  UNL1        0.0001
     25 C           3.2272   41.3583    9.9677 C.ar    1  UNL1        0.0013
     26 C           3.9722   42.0892    9.0379 C.ar    1  UNL1        0.0149
     27 C           5.7002   44.3600    7.8658 C.3     1  UNL1        0.0975
     28 C           4.2097   44.5259    8.0987 C.3     1  UNL1        0.0236
@<TRIPOS>BOND
     1     1    20    1
     2     1     5   ar
     3    27    20    1
     4    27    28    1
     5    22    23   ar
     6    24    25   ar
     7    26    21   ar
     8     2     7    1
     9     2     5   ar
    10     6     8   am
    11    13    14   ar
    12    15    16   ar
    13    17    19    1
    14    17    12   ar
    15    18    19    1
    16    20    21    1
    17     3     4   ar
    18     7     6   am
    19     8    12    1
    20     1     3   ar
    21    21    22   ar
    22    23    24   ar
    23    25    26   ar
    24     2     4   ar
    25     6     9    2
    26    12    13   ar
    27    14    15   ar
    28    16    17   ar
    29     7    10    1
    30     8    11    1
@<TRIPOS>MOLECULE
MolPort-007-713-435 ChemDiv-E002-0304 MCULE-6186887416 PubChem-22509879 ZINC000006768036
 28 30 0 0 0
SMALL
GASTEIGER

@<TRIPOS>ATOM
      1 C          11.8584   41.4467    6.9689 C.ar    1  UNL1        0.1905
      2 C           9.4857   41.6299    6.6815 C.ar    1  UNL1        0.1904
      3 N          11.3975   40.7848    5.8822 N.ar    1  UNL1       -0.1239
      4 N          10.0801   40.8917    5.7184 N.ar    1  UNL1       -0.1240
      5 S          10.5959   42.1925    7.8120 S.2     1  UNL1       -0.0151
      6 C           7.2538   41.6545    7.8893 C.2     1  UNL1        0.3097
      7 N           8.0806   41.8913    6.7459 N.am    1  UNL1       -0.2468
      8 N           5.8613   41.9761    7.8185 N.am    1  UNL1       -0.2656
      9 O           7.7375   41.1526    8.9405 O.2     1  UNL1       -0.2521
     10 H           7.6498   42.2624    5.9422 H       1  UNL1        0.1584
     11 H           5.4989   42.2709    6.9519 H       1  UNL1        0.1565
     12 C           4.9622   41.8956    8.9302 C.ar    1  UNL1        0.0859
     13 C           4.6990   40.6312    9.4690 C.ar    1  UNL1        0.0178
     14 C           3.9101   40.4954   10.6127 C.ar    1  UNL1        0.0015
     15 C           3.3789   41.6274   11.2308 C.ar    1  UNL1        0.0032
     16 C           3.6113   42.8925   10.6880 C.ar    1  UNL1        0.0382
     17 C           4.3736   43.0427    9.5237 C.ar    1  UNL1        0.1521
     18 C           4.8671   44.5856    7.6454 C.3     1  UNL1        0.2525
     19 O           4.4929   44.3320    8.9922 O.3     1  UNL1       -0.4702
     20 N          13.2397   41.4190    7.3776 N.pl3   1  UNL1       -0.2659
     21 C          14.1758   42.4594    7.0262 C.ar    1  UNL1        0.0531
     22 C          13.8200   43.4735    6.1215 C.ar    1  UNL1        0.0149
     23 C          14.7397   44.4629    5.7627 C.ar    1  UNL1        0.0013
     24 C          16.0295   44.4446    6.2981 C.ar    1  UNL1        0.0001
     25 C          16.4009   43.4351    7.1890 C.ar    1  UNL1        0.0013
     26 C          15.4806   42.4460    7.5475 C.ar    1  UNL1        0.0149
     27 C          13.6973   40.2931    8.1881 C.3     1  UNL1        0.0975
     28 C          13.2636   40.4774    9.6308 C.3     1  UNL1        0.0236
@<TRIPOS>BOND
     1     1    20    1
     2     1     5   ar
     3    27    20    1
     4    27    28    1
     5    22    23   ar
     6    24    25   ar
     7    26    21   ar
     8     2     7    1
     9     2     5   ar
    10     6     8   am
    11    13    14   ar
    12    15    16   ar
    13    17    19    1
    14    17    12   ar
    15    18    19    1
    16    20    21    1
    17     3     4   ar
    18     7     6   am
    19     8    12    1
    20     1     3   ar
    21    21    22   ar
    22    23    24   ar
    23    25    26   ar
    24     2     4   ar
    25     6     9    2
    26    12    13   ar
    27    14    15   ar
    28    16    17   ar
    29     7    10    1
    30     8    11    1
@<TRIPOS>MOLECULE
MolPort-007-713-435 ChemDiv-E002-0304 MCULE-6186887416 PubChem-22509879 ZINC000006768036
 28 30 0 0 0
SMALL
GASTEIGER

@<TRIPOS>ATOM
      1 C          12.6269   41.4962    8.1036 C.ar    1  UNL1        0.1905
      2 C          10.3740   42.2821    8.3325 C.ar    1  UNL1        0.1904
      3 N          11.8383   41.1764    7.0512 N.ar    1  UNL1       -0.1239
      4 N          10.5881   41.6184    7.1751 N.ar    1  UNL1       -0.1240
      5 S          11.7605   42.3463    9.2814 S.2     1  UNL1       -0.0151
      6 C           7.9384   42.0996    9.0219 C.2     1  UNL1        0.3097
      7 N           9.1181   42.8494    8.7168 N.am    1  UNL1       -0.2468
      8 N           6.7508   42.7988    9.4068 N.am    1  UNL1       -0.2656
      9 O           7.9356   40.8411    8.9364 O.2     1  UNL1       -0.2521
     10 H           9.0613   43.8305    8.7758 H       1  UNL1        0.1584
     11 H           6.7600   43.7823    9.3654 H       1  UNL1        0.1565
     12 C           5.5496   42.1563    9.8487 C.ar    1  UNL1        0.0859
     13 C           4.3774   42.3879    9.1202 C.ar    1  UNL1        0.0178
     14 C           3.1966   41.7155    9.4399 C.ar    1  UNL1        0.0015
     15 C           3.1793   40.8003   10.4925 C.ar    1  UNL1        0.0032
     16 C           4.3348   40.5801   11.2445 C.ar    1  UNL1        0.0382
     17 C           5.5182   41.2700   10.9568 C.ar    1  UNL1        0.1521
     18 C           7.4521   42.1086   12.2640 C.3     1  UNL1        0.2525
     19 O           6.6107   41.0596   11.8060 O.3     1  UNL1       -0.4702
     20 N          13.9983   41.0688    8.2152 N.pl3   1  UNL1       -0.2659
     21 C          15.1077   41.9042    7.8235 C.ar    1  UNL1        0.0531
     22 C          16.3577   41.7844    8.4530 C.ar    1  UNL1        0.0149
     23 C          17.4211   42.6152    8.0895 C.ar    1  UNL1        0.0013
     24 C          17.2442   43.5823    7.0974 C.ar    1  UNL1        0.0001
     25 C          16.0032   43.7211    6.4718 C.ar    1  UNL1        0.0013
     26 C          14.9402   42.8897    6.8358 C.ar    1  UNL1        0.0149
     27 C          14.2649   39.7388    8.7574 C.3     1  UNL1        0.0975
     28 C          14.1377   39.7557   10.2697 C.3     1  UNL1        0.0236
@<TRIPOS>BOND
     1     1    20    1
     2     1     5   ar
     3    27    20    1
     4    27    28    1
     5    22    23   ar
     6    24    25   ar
     7    26    21   ar
     8     2     7    1
     9     2     5   ar
    10     6     8   am
    11    13    14   ar
    12    15    16   ar
    13    17    19    1
    14    17    12   ar
    15    18    19    1
    16    20    21    1
    17     3     4   ar
    18     7     6   am
    19     8    12    1
    20     1     3   ar
    21    21    22   ar
    22    23    24   ar
    23    25    26   ar
    24     2     4   ar
    25     6     9    2
    26    12    13   ar
    27    14    15   ar
    28    16    17   ar
    29     7    10    1
    30     8    11    1
@<TRIPOS>MOLECULE
MolPort-007-713-435 ChemDiv-E002-0304 MCULE-6186887416 PubChem-22509879 ZINC000006768036
 28 30 0 0 0
SMALL
GASTEIGER

@<TRIPOS>ATOM
      1 C          12.6607   40.8489    9.1949 C.ar    1  UNL1        0.1905
      2 C          10.5514   41.2893   10.2450 C.ar    1  UNL1        0.1904
      3 N          12.1542   39.7783    9.8499 N.ar    1  UNL1       -0.1239
      4 N          10.9792   40.0207   10.4281 N.ar    1  UNL1       -0.1240
      5 S          11.6431   42.1922    9.3395 S.2     1  UNL1       -0.0151
      6 C           8.0399   41.6458   10.1663 C.2     1  UNL1        0.3097
      7 N           9.3268   41.8113   10.7692 N.am    1  UNL1       -0.2468
      8 N           6.8935   42.2119   10.8087 N.am    1  UNL1       -0.2656
      9 O           7.9155   41.0260    9.0748 O.2     1  UNL1       -0.2521
     10 H           9.3732   42.3235   11.6087 H       1  UNL1        0.1584
     11 H           7.0401   42.7736   11.6039 H       1  UNL1        0.1565
     12 C           5.5462   42.0119   10.3666 C.ar    1  UNL1        0.0859
     13 C           4.8644   40.8831   10.8349 C.ar    1  UNL1        0.0178
     14 C           3.5191   40.6831   10.5201 C.ar    1  UNL1        0.0015
     15 C           2.8416   41.6156    9.7345 C.ar    1  UNL1        0.0032
     16 C           3.5172   42.7321    9.2383 C.ar    1  UNL1        0.0382
     17 C           4.8742   42.9303    9.5185 C.ar    1  UNL1        0.1521
     18 C           5.0525   44.6131    7.7050 C.3     1  UNL1        0.2525
     19 O           5.5038   44.0265    8.9177 O.3     1  UNL1       -0.4702
     20 N          13.9484   40.8369    8.5490 N.pl3   1  UNL1       -0.2659
     21 C          14.3610   41.8589    7.6177 C.ar    1  UNL1        0.0531
     22 C          13.5146   42.2663    6.5731 C.ar    1  UNL1        0.0149
     23 C          13.9300   43.2365    5.6568 C.ar    1  UNL1        0.0013
     24 C          15.2009   43.8046    5.7692 C.ar    1  UNL1        0.0001
     25 C          16.0577   43.3999    6.7954 C.ar    1  UNL1        0.0013
     26 C          15.6416   42.4298    7.7115 C.ar    1  UNL1        0.0149
     27 C          14.8689   39.7474    8.8646 C.3     1  UNL1        0.0975
     28 C          15.2785   39.8156   10.3245 C.3     1  UNL1        0.0236
@<TRIPOS>BOND
     1     1    20    1
     2     1     5   ar
     3    27    20    1
     4    27    28    1
     5    22    23   ar
     6    24    25   ar
     7    26    21   ar
     8     2     7    1
     9     2     5   ar
    10     6     8   am
    11    13    14   ar
    12    15    16   ar
    13    17    19    1
    14    17    12   ar
    15    18    19    1
    16    20    21    1
    17     3     4   ar
    18     7     6   am
    19     8    12    1
    20     1     3   ar
    21    21    22   ar
    22    23    24   ar
    23    25    26   ar
    24     2     4   ar
    25     6     9    2
    26    12    13   ar
    27    14    15   ar
    28    16    17   ar
    29     7    10    1
    30     8    11    1
@<TRIPOS>MOLECULE
MolPort-007-713-435 ChemDiv-E002-0304 MCULE-6186887416 PubChem-22509879 ZINC000006768036
 28 30 0 0 0
SMALL
GASTEIGER

@<TRIPOS>ATOM
      1 C          12.5114   41.3237    9.1139 C.ar    1  UNL1        0.1905
      2 C          10.4618   41.6536   10.3121 C.ar    1  UNL1        0.1904
      3 N          12.3596   40.4776   10.1592 N.ar    1  UNL1       -0.1239
      4 N          11.2179   40.6562   10.8213 N.ar    1  UNL1       -0.1240
      5 S          11.1977   42.3815    8.9872 S.2     1  UNL1       -0.0151
      6 C           7.9315   41.8234   10.2126 C.2     1  UNL1        0.3097
      7 N           9.1953   42.0567   10.8416 N.am    1  UNL1       -0.2468
      8 N           6.7383   42.2707   10.8634 N.am    1  UNL1       -0.2656
      9 O           7.8668   41.2481    9.0919 O.2     1  UNL1       -0.2521
     10 H           9.1932   42.5308   11.7044 H       1  UNL1        0.1584
     11 H           6.8328   42.8037   11.6857 H       1  UNL1        0.1565
     12 C           5.4151   41.9910   10.3926 C.ar    1  UNL1        0.0859
     13 C           4.8119   40.7977   10.8057 C.ar    1  UNL1        0.0178
     14 C           3.4892   40.5130   10.4621 C.ar    1  UNL1        0.0015
     15 C           2.7553   41.4243    9.7027 C.ar    1  UNL1        0.0032
     16 C           3.3535   42.6059    9.2611 C.ar    1  UNL1        0.0382
     17 C           4.6885   42.8912    9.5702 C.ar    1  UNL1        0.1521
     18 C           6.0061   44.0599    7.8237 C.3     1  UNL1        0.2525
     19 O           5.2437   44.0533    9.0225 O.3     1  UNL1       -0.4702
     20 N          13.6959   41.3542    8.2943 N.pl3   1  UNL1       -0.2659
     21 C          14.9980   40.9855    8.7951 C.ar    1  UNL1        0.0531
     22 C          15.1630   39.8519    9.6083 C.ar    1  UNL1        0.0149
     23 C          16.4215   39.5151   10.1141 C.ar    1  UNL1        0.0013
     24 C          17.5291   40.3134    9.8196 C.ar    1  UNL1        0.0001
     25 C          17.3774   41.4505    9.0228 C.ar    1  UNL1        0.0013
     26 C          16.1185   41.7866    8.5171 C.ar    1  UNL1        0.0149
     27 C          13.5598   41.7665    6.8995 C.3     1  UNL1        0.0975
     28 C          13.8206   43.2558    6.7670 C.3     1  UNL1        0.0236
@<TRIPOS>BOND
     1     1    20    1
     2     1     5   ar
     3    27    20    1
     4    27    28    1
     5    22    23   ar
     6    24    25   ar
     7    26    21   ar
     8     2     7    1
     9     2     5   ar
    10     6     8   am
    11    13    14   ar
    12    15    16   ar
    13    17    19    1
    14    17    12   ar
    15    18    19    1
    16    20    21    1
    17     3     4   ar
    18     7     6   am
    19     8    12    1
    20     1     3   ar
    21    21    22   ar
    22    23    24   ar
    23    25    26   ar
    24     2     4   ar
    25     6     9    2
    26    12    13   ar
    27    14    15   ar
    28    16    17   ar
    29     7    10    1
    30     8    11    1
