@<TRIPOS>MOLECULE
MolPort-020-298-675 MCULE-3684237599 PubChem-110269819
 28 30 0 0 0
SMALL
GASTEIGER

@<TRIPOS>ATOM
      1 C          13.6357   40.3168    9.2839 C.ar    1  UNL1        0.1339
      2 C          13.3948   39.9889   10.6250 C.ar    1  UNL1        0.0345
      3 C          12.0906   39.7352   11.0498 C.ar    1  UNL1        0.0041
      4 C          11.0378   39.8096   10.1387 C.ar    1  UNL1        0.0149
      5 C          11.3079   40.1401    8.8039 C.ar    1  UNL1        0.0614
      6 N          12.5894   40.3823    8.4156 N.ar    1  UNL1       -0.2348
      7 C          10.2104   40.2289    7.7921 C.3     1  UNL1        0.0563
      8 C           8.9108   40.7018    8.4306 C.3     1  UNL1        0.0087
      9 C           7.8263   40.7791    7.3687 C.3     1  UNL1        0.0178
     10 C           7.6659   39.4153    6.6891 C.3     1  UNL1        0.0725
     11 C           9.9989   38.8816    7.0893 C.3     1  UNL1        0.0784
     12 N           8.9187   38.9307    6.0918 N.3     1  UNL1       -0.2647
     13 C           9.3002   39.7886    4.9719 C.3     1  UNL1        0.1582
     14 C           9.5263   38.9699    3.7470 C.2     1  UNL1        0.2357
     15 N          10.5279   37.9592    3.7361 N.am    1  UNL1       -0.3277
     16 O           8.8229   39.1671    2.7231 O.2     1  UNL1       -0.2738
     17 H          11.0792   37.8038    4.5368 H       1  UNL1        0.1450
     18 H          10.6696   37.4153    2.9278 H       1  UNL1        0.1450
     19 N          14.9576   40.5857    8.7949 N.pl3   1  UNL1       -0.2680
     20 H          15.6296   39.8826    8.9475 H       1  UNL1        0.1565
     21 C          18.4503   43.9091    7.9230 C.3     1  UNL1        0.0522
     22 C          17.0854   43.3785    7.6716 C.ar    1  UNL1        0.0634
     23 C          16.2423   44.0226    6.7684 C.ar    1  UNL1        0.0296
     24 C          14.9697   43.4938    6.5605 C.ar    1  UNL1        0.0634
     25 C          15.4130   41.7603    8.1097 C.ar    1  UNL1        0.2211
     26 C          14.0394   44.1502    5.6055 C.3     1  UNL1        0.0522
     27 N          14.5798   42.3784    7.2311 N.ar    1  UNL1       -0.2179
     28 N          16.6589   42.2654    8.3227 N.ar    1  UNL1       -0.2179
@<TRIPOS>BOND
     1    21    22    1
     2    22    28   ar
     3    23    24   ar
     4    25    27   ar
     5    25    19    1
     6     1     6   ar
     7     2     3   ar
     8     4     5   ar
     9     7     5    1
    10     7     8    1
    11     8     9    1
    12     9    10    1
    13    10    12    1
    14    11    12    1
    15    11     7    1
    16    13    12    1
    17    13    14    1
    18    14    15   am
    19    26    24    1
    20    19     1    1
    21    22    23   ar
    22    24    27   ar
    23    25    28   ar
    24     1     2   ar
    25     3     4   ar
    26     5     6   ar
    27    14    16    2
    28    19    20    1
    29    15    17    1
    30    15    18    1
@<TRIPOS>MOLECULE
MolPort-020-298-675 MCULE-3684237599 PubChem-110269819
 28 30 0 0 0
SMALL
GASTEIGER

@<TRIPOS>ATOM
      1 C          15.2612   42.1454    7.5406 C.ar    1  UNL1        0.1339
      2 C          15.6104   43.2600    6.7660 C.ar    1  UNL1        0.0345
      3 C          14.6567   43.8501    5.9367 C.ar    1  UNL1        0.0041
      4 C          13.3650   43.3278    5.8843 C.ar    1  UNL1        0.0149
      5 C          13.0438   42.2123    6.6693 C.ar    1  UNL1        0.0614
      6 N          13.9929   41.6560    7.4703 N.ar    1  UNL1       -0.2348
      7 C          11.6708   41.6203    6.6467 C.3     1  UNL1        0.0563
      8 C          10.9641   41.8197    7.9813 C.3     1  UNL1        0.0087
      9 C           9.5754   41.2060    7.9130 C.3     1  UNL1        0.0178
     10 C           9.6796   39.7242    7.5374 C.3     1  UNL1        0.0725
     11 C          11.7197   40.1295    6.2877 C.3     1  UNL1        0.0784
     12 N          10.3845   39.5120    6.2650 N.3     1  UNL1       -0.2647
     13 C           9.5934   40.0533    5.1619 C.3     1  UNL1        0.1582
     14 C           9.5700   39.0928    4.0223 C.2     1  UNL1        0.2357
     15 N          10.1490   37.8006    4.1629 N.am    1  UNL1       -0.3277
     16 O           9.0282   39.4227    2.9361 O.2     1  UNL1       -0.2738
     17 H          10.5734   37.5411    5.0125 H       1  UNL1        0.1450
     18 H          10.1252   37.1660    3.4106 H       1  UNL1        0.1450
     19 N          16.2033   41.5016    8.4106 N.pl3   1  UNL1       -0.2680
     20 H          17.1370   41.8063    8.3430 H       1  UNL1        0.1565
     21 C          13.1652   39.2923   11.5560 C.3     1  UNL1        0.0522
     22 C          14.4920   39.3808   10.8932 C.ar    1  UNL1        0.0634
     23 C          15.4881   38.4563   11.2006 C.ar    1  UNL1        0.0296
     24 C          16.7189   38.5734   10.5575 C.ar    1  UNL1        0.0634
     25 C          15.9419   40.4657    9.3671 C.ar    1  UNL1        0.2211
     26 C          17.8082   37.6078   10.8566 C.3     1  UNL1        0.0522
     27 N          16.9229   39.5704    9.6574 N.ar    1  UNL1       -0.2179
     28 N          14.7345   40.3635    9.9874 N.ar    1  UNL1       -0.2179
@<TRIPOS>BOND
     1    21    22    1
     2    22    28   ar
     3    23    24   ar
     4    25    27   ar
     5    25    19    1
     6     1     6   ar
     7     2     3   ar
     8     4     5   ar
     9     7     5    1
    10     7     8    1
    11     8     9    1
    12     9    10    1
    13    10    12    1
    14    11    12    1
    15    11     7    1
    16    13    12    1
    17    13    14    1
    18    14    15   am
    19    26    24    1
    20    19     1    1
    21    22    23   ar
    22    24    27   ar
    23    25    28   ar
    24     1     2   ar
    25     3     4   ar
    26     5     6   ar
    27    14    16    2
    28    19    20    1
    29    15    17    1
    30    15    18    1
@<TRIPOS>MOLECULE
MolPort-020-298-675 MCULE-3684237599 PubChem-110269819
 28 30 0 0 0
SMALL
GASTEIGER

@<TRIPOS>ATOM
      1 C          10.8322   41.3162    6.1505 C.ar    1  UNL1        0.1339
      2 C          10.6829   40.0162    5.6486 C.ar    1  UNL1        0.0345
      3 C           9.6086   39.2329    6.0702 C.ar    1  UNL1        0.0041
      4 C           8.6924   39.7479    6.9864 C.ar    1  UNL1        0.0149
      5 C           8.8665   41.0508    7.4720 C.ar    1  UNL1        0.0614
      6 N           9.9230   41.7941    7.0439 N.ar    1  UNL1       -0.2348
      7 C           7.9075   41.6449    8.4537 C.3     1  UNL1        0.0563
      8 C           8.3109   41.3148    9.8849 C.3     1  UNL1        0.0087
      9 C           7.3125   41.9380   10.8465 C.3     1  UNL1        0.0178
     10 C           5.8995   41.4424   10.5224 C.3     1  UNL1        0.0725
     11 C           6.4748   41.1687    8.1811 C.3     1  UNL1        0.0784
     12 N           5.5048   41.7278    9.1354 N.3     1  UNL1       -0.2647
     13 C           5.3759   43.1705    8.9419 C.3     1  UNL1        0.1582
     14 C           3.9432   43.5428    8.7668 C.2     1  UNL1        0.2357
     15 N           3.5889   44.6816    7.9905 N.am    1  UNL1       -0.3277
     16 O           3.0443   42.8423    9.2992 O.2     1  UNL1       -0.2738
     17 H           4.2914   45.2308    7.5732 H       1  UNL1        0.1450
     18 H           2.6414   44.9203    7.8708 H       1  UNL1        0.1450
     19 N          11.9181   42.1638    5.7490 N.pl3   1  UNL1       -0.2680
     20 H          11.7660   42.7166    4.9487 H       1  UNL1        0.1565
     21 C          16.2254   44.4610    6.1661 C.3     1  UNL1        0.0522
     22 C          15.2879   43.3928    6.5993 C.ar    1  UNL1        0.0634
     23 C          15.6523   42.5171    7.6200 C.ar    1  UNL1        0.0296
     24 C          14.7451   41.5286    7.9972 C.ar    1  UNL1        0.0634
     25 C          13.1993   42.2988    6.3789 C.ar    1  UNL1        0.2211
     26 C          15.0944   40.5744    9.0814 C.3     1  UNL1        0.0522
     27 N          13.5416   41.4374    7.3734 N.ar    1  UNL1       -0.2179
     28 N          14.0753   43.2694    6.0000 N.ar    1  UNL1       -0.2179
@<TRIPOS>BOND
     1    21    22    1
     2    22    28   ar
     3    23    24   ar
     4    25    27   ar
     5    25    19    1
     6     1     6   ar
     7     2     3   ar
     8     4     5   ar
     9     7     5    1
    10     7     8    1
    11     8     9    1
    12     9    10    1
    13    10    12    1
    14    11    12    1
    15    11     7    1
    16    13    12    1
    17    13    14    1
    18    14    15   am
    19    26    24    1
    20    19     1    1
    21    22    23   ar
    22    24    27   ar
    23    25    28   ar
    24     1     2   ar
    25     3     4   ar
    26     5     6   ar
    27    14    16    2
    28    19    20    1
    29    15    17    1
    30    15    18    1
@<TRIPOS>MOLECULE
MolPort-020-298-675 MCULE-3684237599 PubChem-110269819
 28 30 0 0 0
SMALL
GASTEIGER

@<TRIPOS>ATOM
      1 C          11.6709   40.9712    8.7033 C.ar    1  UNL1        0.1339
      2 C          11.8200   40.7828   10.0840 C.ar    1  UNL1        0.0345
      3 C          10.7291   40.9837   10.9297 C.ar    1  UNL1        0.0041
      4 C           9.5002   41.3699   10.3963 C.ar    1  UNL1        0.0149
      5 C           9.3799   41.5515    9.0119 C.ar    1  UNL1        0.0614
      6 N          10.4598   41.3483    8.2092 N.ar    1  UNL1       -0.2348
      7 C           8.0809   41.9629    8.3959 C.3     1  UNL1        0.0563
      8 C           8.2364   42.2152    6.9018 C.3     1  UNL1        0.0087
      9 C           6.8953   42.6280    6.3180 C.3     1  UNL1        0.0178
     10 C           6.3658   43.8631    7.0539 C.3     1  UNL1        0.0725
     11 C           7.5121   43.2075    9.0897 C.3     1  UNL1        0.0784
     12 N           6.2365   43.6458    8.5021 N.3     1  UNL1       -0.2647
     13 C           5.1907   42.6597    8.7656 C.3     1  UNL1        0.1582
     14 C           3.8643   43.3303    8.8786 C.2     1  UNL1        0.2357
     15 N           3.6194   44.5530    8.1932 N.am    1  UNL1       -0.3277
     16 O           2.9557   42.8084    9.5745 O.2     1  UNL1       -0.2738
     17 H           4.3296   44.9626    7.6481 H       1  UNL1        0.1450
     18 H           2.7397   44.9894    8.2640 H       1  UNL1        0.1450
     19 N          12.7600   40.7769    7.7896 N.pl3   1  UNL1       -0.2680
     20 H          12.7258   39.9618    7.2386 H       1  UNL1        0.1565
     21 C          14.8157   44.6590    5.6200 C.3     1  UNL1        0.0522
     22 C          14.9083   43.5042    6.5503 C.ar    1  UNL1        0.0634
     23 C          16.0984   43.2487    7.2283 C.ar    1  UNL1        0.0296
     24 C          16.1448   42.1558    8.0919 C.ar    1  UNL1        0.0634
     25 C          13.8926   41.6327    7.5865 C.ar    1  UNL1        0.2211
     26 C          17.3947   41.8483    8.8344 C.3     1  UNL1        0.0522
     27 N          15.0474   41.3716    8.2546 N.ar    1  UNL1       -0.2179
     28 N          13.8325   42.6968    6.7398 N.ar    1  UNL1       -0.2179
@<TRIPOS>BOND
     1    21    22    1
     2    22    28   ar
     3    23    24   ar
     4    25    27   ar
     5    25    19    1
     6     1     6   ar
     7     2     3   ar
     8     4     5   ar
     9     7     5    1
    10     7     8    1
    11     8     9    1
    12     9    10    1
    13    10    12    1
    14    11    12    1
    15    11     7    1
    16    13    12    1
    17    13    14    1
    18    14    15   am
    19    26    24    1
    20    19     1    1
    21    22    23   ar
    22    24    27   ar
    23    25    28   ar
    24     1     2   ar
    25     3     4   ar
    26     5     6   ar
    27    14    16    2
    28    19    20    1
    29    15    17    1
    30    15    18    1
@<TRIPOS>MOLECULE
MolPort-020-298-675 MCULE-3684237599 PubChem-110269819
 28 30 0 0 0
SMALL
GASTEIGER

@<TRIPOS>ATOM
      1 C          12.2773   40.7265    9.4006 C.ar    1  UNL1        0.1339
      2 C          12.2152   40.3471   10.7484 C.ar    1  UNL1        0.0345
      3 C          11.0668   40.6226   11.4906 C.ar    1  UNL1        0.0041
      4 C           9.9907   41.2724   10.8874 C.ar    1  UNL1        0.0149
      5 C          10.0806   41.6408    9.5383 C.ar    1  UNL1        0.0614
      6 N          11.2123   41.3596    8.8368 N.ar    1  UNL1       -0.2348
      7 C           8.9504   42.3371    8.8499 C.3     1  UNL1        0.0563
      8 C           8.6715   43.6932    9.4852 C.3     1  UNL1        0.0087
      9 C           7.5200   44.3647    8.7552 C.3     1  UNL1        0.0178
     10 C           6.2865   43.4563    8.7829 C.3     1  UNL1        0.0725
     11 C           7.6826   41.4732    8.8612 C.3     1  UNL1        0.0784
     12 N           6.5464   42.1325    8.1989 N.3     1  UNL1       -0.2647
     13 C           6.7998   42.2623    6.7655 C.3     1  UNL1        0.1582
     14 C           6.8335   40.9180    6.1225 C.2     1  UNL1        0.2357
     15 N           5.7782   39.9902    6.3469 N.am    1  UNL1       -0.3277
     16 O           7.7934   40.6067    5.3716 O.2     1  UNL1       -0.2738
     17 H           5.0263   40.2326    6.9343 H       1  UNL1        0.1450
     18 H           5.7999   39.1059    5.9146 H       1  UNL1        0.1450
     19 N          13.4338   40.4661    8.5923 N.pl3   1  UNL1       -0.2680
     20 H          13.6211   39.5206    8.3921 H       1  UNL1        0.1565
     21 C          17.8965   42.4833    8.4508 C.3     1  UNL1        0.0522
     22 C          16.4973   42.4151    7.9554 C.ar    1  UNL1        0.0634
     23 C          16.0691   43.2841    6.9539 C.ar    1  UNL1        0.0296
     24 C          14.7493   43.1885    6.5167 C.ar    1  UNL1        0.0634
     25 C          14.3484   41.4240    8.0423 C.ar    1  UNL1        0.2211
     26 C          14.2524   44.0964    5.4504 C.3     1  UNL1        0.0522
     27 N          13.9170   42.2656    7.0656 N.ar    1  UNL1       -0.2179
     28 N          15.6350   41.5057    8.4791 N.ar    1  UNL1       -0.2179
@<TRIPOS>BOND
     1    21    22    1
     2    22    28   ar
     3    23    24   ar
     4    25    27   ar
     5    25    19    1
     6     1     6   ar
     7     2     3   ar
     8     4     5   ar
     9     7     5    1
    10     7     8    1
    11     8     9    1
    12     9    10    1
    13    10    12    1
    14    11    12    1
    15    11     7    1
    16    13    12    1
    17    13    14    1
    18    14    15   am
    19    26    24    1
    20    19     1    1
    21    22    23   ar
    22    24    27   ar
    23    25    28   ar
    24     1     2   ar
    25     3     4   ar
    26     5     6   ar
    27    14    16    2
    28    19    20    1
    29    15    17    1
    30    15    18    1
@<TRIPOS>MOLECULE
MolPort-020-298-675 MCULE-3684237599 PubChem-110269819
 28 30 0 0 0
SMALL
GASTEIGER

@<TRIPOS>ATOM
      1 C          11.3652   41.5616    8.8286 C.ar    1  UNL1        0.1339
      2 C          12.0358   40.8956    9.8636 C.ar    1  UNL1        0.0345
      3 C          11.3479   40.5656   11.0313 C.ar    1  UNL1        0.0041
      4 C          10.0006   40.9000   11.1604 C.ar    1  UNL1        0.0149
      5 C           9.3555   41.5662   10.1098 C.ar    1  UNL1        0.0614
      6 N          10.0496   41.8760    8.9810 N.ar    1  UNL1       -0.2348
      7 C           7.9111   41.9422   10.2036 C.3     1  UNL1        0.0563
      8 C           7.2184   41.1865   11.3302 C.3     1  UNL1        0.0087
      9 C           5.7570   41.5996   11.3902 C.3     1  UNL1        0.0178
     10 C           5.0885   41.3443   10.0355 C.3     1  UNL1        0.0725
     11 C           7.1896   41.6927    8.8728 C.3     1  UNL1        0.0784
     12 N           5.7622   42.0440    8.9321 N.3     1  UNL1       -0.2647
     13 C           5.6007   43.4882    9.0867 C.3     1  UNL1        0.1582
     14 C           4.3979   43.9568    8.3414 C.2     1  UNL1        0.2357
     15 N           4.5053   44.3346    6.9737 N.am    1  UNL1       -0.3277
     16 O           3.2829   44.0092    8.9210 O.2     1  UNL1       -0.2738
     17 H           5.3774   44.2941    6.5188 H       1  UNL1        0.1450
     18 H           3.7074   44.6366    6.4823 H       1  UNL1        0.1450
     19 N          12.0253   41.9230    7.6070 N.pl3   1  UNL1       -0.2680
     20 H          11.4949   41.8328    6.7824 H       1  UNL1        0.1565
     21 C          16.7987   41.6069    8.6647 C.3     1  UNL1        0.0522
     22 C          15.6800   42.2678    7.9440 C.ar    1  UNL1        0.0634
     23 C          15.9331   43.3558    7.1111 C.ar    1  UNL1        0.0296
     24 C          14.8568   43.9480    6.4530 C.ar    1  UNL1        0.0634
     25 C          13.3682   42.4003    7.4481 C.ar    1  UNL1        0.2211
     26 C          15.0833   45.1105    5.5556 C.3     1  UNL1        0.0522
     27 N          13.6005   43.4627    6.6323 N.ar    1  UNL1       -0.2179
     28 N          14.4098   41.8116    8.0972 N.ar    1  UNL1       -0.2179
@<TRIPOS>BOND
     1    21    22    1
     2    22    28   ar
     3    23    24   ar
     4    25    27   ar
     5    25    19    1
     6     1     6   ar
     7     2     3   ar
     8     4     5   ar
     9     7     5    1
    10     7     8    1
    11     8     9    1
    12     9    10    1
    13    10    12    1
    14    11    12    1
    15    11     7    1
    16    13    12    1
    17    13    14    1
    18    14    15   am
    19    26    24    1
    20    19     1    1
    21    22    23   ar
    22    24    27   ar
    23    25    28   ar
    24     1     2   ar
    25     3     4   ar
    26     5     6   ar
    27    14    16    2
    28    19    20    1
    29    15    17    1
    30    15    18    1
@<TRIPOS>MOLECULE
MolPort-020-298-675 MCULE-3684237599 PubChem-110269819
 28 30 0 0 0
SMALL
GASTEIGER

@<TRIPOS>ATOM
      1 C          12.3646   41.0023    8.8082 C.ar    1  UNL1        0.1339
      2 C          12.9562   40.3162    9.8776 C.ar    1  UNL1        0.0345
      3 C          12.2248   40.0947   11.0445 C.ar    1  UNL1        0.0041
      4 C          10.9127   40.5567   11.1385 C.ar    1  UNL1        0.0149
      5 C          10.3466   41.2401   10.0539 C.ar    1  UNL1        0.0614
      6 N          11.0819   41.4423    8.9268 N.ar    1  UNL1       -0.2348
      7 C           8.9424   41.7511   10.1096 C.3     1  UNL1        0.0563
      8 C           8.2294   41.2640   11.3645 C.3     1  UNL1        0.0087
      9 C           6.8100   41.8070   11.3808 C.3     1  UNL1        0.0178
     10 C           6.0759   41.3815   10.1051 C.3     1  UNL1        0.0725
     11 C           8.1567   41.3400    8.8575 C.3     1  UNL1        0.0784
     12 N           6.7661   41.8194    8.8832 N.3     1  UNL1       -0.2647
     13 C           6.7296   43.2771    8.7866 C.3     1  UNL1        0.1582
     14 C           6.1244   43.6945    7.4899 C.2     1  UNL1        0.2357
     15 N           4.7662   44.1153    7.4361 N.am    1  UNL1       -0.3277
     16 O           6.8198   43.6836    6.4418 O.2     1  UNL1       -0.2738
     17 H           4.2208   44.1243    8.2557 H       1  UNL1        0.1450
     18 H           4.3718   44.3974    6.5793 H       1  UNL1        0.1450
     19 N          13.0719   41.2555    7.5858 N.pl3   1  UNL1       -0.2680
     20 H          12.7366   40.7918    6.7847 H       1  UNL1        0.1565
     21 C          15.0844   45.3002    5.6899 C.3     1  UNL1        0.0522
     22 C          15.2064   44.0543    6.4903 C.ar    1  UNL1        0.0634
     23 C          16.4303   43.7078    7.0589 C.ar    1  UNL1        0.0296
     24 C          16.5035   42.5312    7.8023 C.ar    1  UNL1        0.0634
     25 C          14.2109   42.1059    7.3961 C.ar    1  UNL1        0.2211
     26 C          17.7898   42.1252    8.4257 C.3     1  UNL1        0.0522
     27 N          15.3989   41.7555    7.9567 N.ar    1  UNL1       -0.2179
     28 N          14.1245   43.2524    6.6675 N.ar    1  UNL1       -0.2179
@<TRIPOS>BOND
     1    21    22    1
     2    22    28   ar
     3    23    24   ar
     4    25    27   ar
     5    25    19    1
     6     1     6   ar
     7     2     3   ar
     8     4     5   ar
     9     7     5    1
    10     7     8    1
    11     8     9    1
    12     9    10    1
    13    10    12    1
    14    11    12    1
    15    11     7    1
    16    13    12    1
    17    13    14    1
    18    14    15   am
    19    26    24    1
    20    19     1    1
    21    22    23   ar
    22    24    27   ar
    23    25    28   ar
    24     1     2   ar
    25     3     4   ar
    26     5     6   ar
    27    14    16    2
    28    19    20    1
    29    15    17    1
    30    15    18    1
@<TRIPOS>MOLECULE
MolPort-020-298-675 MCULE-3684237599 PubChem-110269819
 28 30 0 0 0
SMALL
GASTEIGER

@<TRIPOS>ATOM
      1 C          12.7190   42.1749    6.4706 C.ar    1  UNL1        0.1339
      2 C          13.8002   43.0252    6.2017 C.ar    1  UNL1        0.0345
      3 C          14.9963   42.8627    6.9006 C.ar    1  UNL1        0.0041
      4 C          15.1077   41.8572    7.8601 C.ar    1  UNL1        0.0149
      5 C          14.0104   41.0218    8.1087 C.ar    1  UNL1        0.0614
      6 N          12.8551   41.2014    7.4123 N.ar    1  UNL1       -0.2348
      7 C          14.0854   39.9291    9.1268 C.3     1  UNL1        0.0563
      8 C          13.1842   40.2251   10.3185 C.3     1  UNL1        0.0087
      9 C          13.2900   39.0910   11.3247 C.3     1  UNL1        0.0178
     10 C          14.7513   38.9042   11.7458 C.3     1  UNL1        0.0725
     11 C          15.5303   39.7095    9.5935 C.3     1  UNL1        0.0784
     12 N          15.6399   38.6456   10.6037 N.3     1  UNL1       -0.2647
     13 C          15.3231   37.3480   10.0109 C.3     1  UNL1        0.1582
     14 C          16.5563   36.7148    9.4629 C.2     1  UNL1        0.2357
     15 N          16.6502   36.4127    8.0756 N.am    1  UNL1       -0.3277
     16 O          17.5204   36.4557   10.2281 O.2     1  UNL1       -0.2738
     17 H          15.8964   36.6150    7.4756 H       1  UNL1        0.1450
     18 H          17.4691   36.0013    7.7157 H       1  UNL1        0.1450
     19 N          11.4675   42.2982    5.7798 N.pl3   1  UNL1       -0.2680
     20 H          11.2504   43.1919    5.4284 H       1  UNL1        0.1565
     21 C           7.0600   40.3382    6.6378 C.3     1  UNL1        0.0522
     22 C           8.3715   40.3037    5.9403 C.ar    1  UNL1        0.0634
     23 C           8.6621   39.2699    5.0526 C.ar    1  UNL1        0.0296
     24 C           9.9033   39.2733    4.4186 C.ar    1  UNL1        0.0634
     25 C          10.4963   41.2702    5.5421 C.ar    1  UNL1        0.2211
     26 C          10.2530   38.1892    3.4644 C.3     1  UNL1        0.0522
     27 N          10.7933   40.2677    4.6732 N.ar    1  UNL1       -0.2179
     28 N           9.2878   41.2800    6.1684 N.ar    1  UNL1       -0.2179
@<TRIPOS>BOND
     1    21    22    1
     2    22    28   ar
     3    23    24   ar
     4    25    27   ar
     5    25    19    1
     6     1     6   ar
     7     2     3   ar
     8     4     5   ar
     9     7     5    1
    10     7     8    1
    11     8     9    1
    12     9    10    1
    13    10    12    1
    14    11    12    1
    15    11     7    1
    16    13    12    1
    17    13    14    1
    18    14    15   am
    19    26    24    1
    20    19     1    1
    21    22    23   ar
    22    24    27   ar
    23    25    28   ar
    24     1     2   ar
    25     3     4   ar
    26     5     6   ar
    27    14    16    2
    28    19    20    1
    29    15    17    1
    30    15    18    1
@<TRIPOS>MOLECULE
MolPort-020-298-675 MCULE-3684237599 PubChem-110269819
 28 30 0 0 0
SMALL
GASTEIGER

@<TRIPOS>ATOM
      1 C          12.9160   40.1142    8.8125 C.ar    1  UNL1        0.1339
      2 C          12.6466   38.8612    8.2452 C.ar    1  UNL1        0.0345
      3 C          11.3260   38.4304    8.1190 C.ar    1  UNL1        0.0041
      4 C          10.2851   39.2480    8.5574 C.ar    1  UNL1        0.0149
      5 C          10.5837   40.4957    9.1212 C.ar    1  UNL1        0.0614
      6 N          11.8808   40.8921    9.2321 N.ar    1  UNL1       -0.2348
      7 C           9.4995   41.4062    9.6025 C.3     1  UNL1        0.0563
      8 C           9.3138   41.2911   11.1100 C.3     1  UNL1        0.0087
      9 C           8.2066   42.2323   11.5549 C.3     1  UNL1        0.0178
     10 C           6.9156   41.9127   10.7942 C.3     1  UNL1        0.0725
     11 C           8.1772   41.1182    8.8797 C.3     1  UNL1        0.0784
     12 N           7.0847   41.9915    9.3360 N.3     1  UNL1       -0.2647
     13 C           7.3405   43.3744    8.9390 C.3     1  UNL1        0.1582
     14 C           6.1870   43.9113    8.1624 C.2     1  UNL1        0.2357
     15 N           5.9462   43.4608    6.8343 N.am    1  UNL1       -0.3277
     16 O           5.4189   44.7582    8.6866 O.2     1  UNL1       -0.2738
     17 H           6.5466   42.7980    6.4228 H       1  UNL1        0.1450
     18 H           5.1791   43.8120    6.3269 H       1  UNL1        0.1450
     19 N          14.2556   40.6053    8.9645 N.pl3   1  UNL1       -0.2680
     20 H          14.7940   40.1885    9.6755 H       1  UNL1        0.1565
     21 C          18.2262   43.2951    7.9629 C.3     1  UNL1        0.0522
     22 C          16.8066   42.9457    7.6979 C.ar    1  UNL1        0.0634
     23 C          16.0967   43.6177    6.7050 C.ar    1  UNL1        0.0296
     24 C          14.7672   43.2608    6.4873 C.ar    1  UNL1        0.0634
     25 C          14.9007   41.6331    8.2003 C.ar    1  UNL1        0.2211
     26 C          13.9746   43.9526    5.4379 C.3     1  UNL1        0.0522
     27 N          14.1960   42.2805    7.2346 N.ar    1  UNL1       -0.2179
     28 N          16.2001   41.9710    8.4240 N.ar    1  UNL1       -0.2179
@<TRIPOS>BOND
     1    21    22    1
     2    22    28   ar
     3    23    24   ar
     4    25    27   ar
     5    25    19    1
     6     1     6   ar
     7     2     3   ar
     8     4     5   ar
     9     7     5    1
    10     7     8    1
    11     8     9    1
    12     9    10    1
    13    10    12    1
    14    11    12    1
    15    11     7    1
    16    13    12    1
    17    13    14    1
    18    14    15   am
    19    26    24    1
    20    19     1    1
    21    22    23   ar
    22    24    27   ar
    23    25    28   ar
    24     1     2   ar
    25     3     4   ar
    26     5     6   ar
    27    14    16    2
    28    19    20    1
    29    15    17    1
    30    15    18    1
@<TRIPOS>MOLECULE
MolPort-020-298-675 MCULE-3684237599 PubChem-110269819
 28 30 0 0 0
SMALL
GASTEIGER

@<TRIPOS>ATOM
      1 C          11.6161   40.7815    9.0399 C.ar    1  UNL1        0.1339
      2 C          11.7146   40.6854   10.4347 C.ar    1  UNL1        0.0345
      3 C          10.6084   40.9915   11.2273 C.ar    1  UNL1        0.0041
      4 C           9.4146   41.3901   10.6274 C.ar    1  UNL1        0.0149
      5 C           9.3447   41.4778    9.2305 C.ar    1  UNL1        0.0614
      6 N          10.4385   41.1731    8.4805 N.ar    1  UNL1       -0.2348
      7 C           8.0845   41.8986    8.5442 C.3     1  UNL1        0.0563
      8 C           8.3312   42.1846    7.0686 C.3     1  UNL1        0.0087
      9 C           7.0270   42.6058    6.4117 C.3     1  UNL1        0.0178
     10 C           6.4472   43.8226    7.1403 C.3     1  UNL1        0.0725
     11 C           7.4680   43.1256    9.2285 C.3     1  UNL1        0.0784
     12 N           6.2293   43.5727    8.5725 N.3     1  UNL1       -0.2647
     13 C           5.1737   42.5776    8.7488 C.3     1  UNL1        0.1582
     14 C           3.8481   43.2471    8.8771 C.2     1  UNL1        0.2357
     15 N           3.5579   44.4128    8.1144 N.am    1  UNL1       -0.3277
     16 O           2.9802   42.7742    9.6550 O.2     1  UNL1       -0.2738
     17 H           4.2363   44.7840    7.5051 H       1  UNL1        0.1450
     18 H           2.6787   44.8482    8.1960 H       1  UNL1        0.1450
     19 N          12.7229   40.4773    8.1790 N.pl3   1  UNL1       -0.2680
     20 H          12.7242   39.5810    7.7718 H       1  UNL1        0.1565
     21 C          17.3705   41.8713    8.8582 C.3     1  UNL1        0.0522
     22 C          16.0710   42.0197    8.1532 C.ar    1  UNL1        0.0634
     23 C          15.9216   42.9884    7.1629 C.ar    1  UNL1        0.0296
     24 C          14.6870   43.0960    6.5254 C.ar    1  UNL1        0.0634
     25 C          13.8275   41.3280    7.8433 C.ar    1  UNL1        0.2211
     26 C          14.4857   44.1158    5.4635 C.3     1  UNL1        0.0522
     27 N          13.6676   42.2687    6.8750 N.ar    1  UNL1       -0.2179
     28 N          15.0279   41.2112    8.4745 N.ar    1  UNL1       -0.2179
@<TRIPOS>BOND
     1    21    22    1
     2    22    28   ar
     3    23    24   ar
     4    25    27   ar
     5    25    19    1
     6     1     6   ar
     7     2     3   ar
     8     4     5   ar
     9     7     5    1
    10     7     8    1
    11     8     9    1
    12     9    10    1
    13    10    12    1
    14    11    12    1
    15    11     7    1
    16    13    12    1
    17    13    14    1
    18    14    15   am
    19    26    24    1
    20    19     1    1
    21    22    23   ar
    22    24    27   ar
    23    25    28   ar
    24     1     2   ar
    25     3     4   ar
    26     5     6   ar
    27    14    16    2
    28    19    20    1
    29    15    17    1
    30    15    18    1
