@<TRIPOS>MOLECULE
MolPort-006-609-944 ChemDiv-V008-9224 MCULE-2105279459 PubChem-46070028 ZINC000034735436 ZINC34735436
 37 40 0 0 0
SMALL
GASTEIGER

@<TRIPOS>ATOM
      1 C           4.5150   42.0068   10.8428 C.ar    1  UNL1        0.0516
      2 C           5.8998   41.8232   10.9054 C.ar    1  UNL1        0.0296
      3 C           6.7119   42.0140    9.7755 C.ar    1  UNL1        0.0565
      4 C           6.1023   42.4094    8.5711 C.ar    1  UNL1        0.0150
      5 C           4.7197   42.5933    8.4970 C.ar    1  UNL1        0.0026
      6 C           3.9287   42.3902    9.6287 C.ar    1  UNL1        0.0148
      7 C           8.8913   42.5266   10.9095 C.3     1  UNL1        0.1015
      8 C           9.9291   41.5842   11.4949 C.3     1  UNL1        0.0435
      9 C          10.9306   41.1771   10.4177 C.3     1  UNL1        0.0971
     10 C           8.9022   41.0678    8.9013 C.2     1  UNL1        0.3112
     11 O           8.3744   40.6746    7.8243 O.2     1  UNL1       -0.2520
     12 N           8.1458   41.8484    9.8511 N.am    1  UNL1       -0.2430
     13 N          10.2747   40.7423    9.1818 N.am    1  UNL1       -0.2596
     14 C          11.0875   40.0622    8.1827 C.3     1  UNL1        0.1219
     15 C          12.3388   40.8306    7.9173 C.ar    1  UNL1        0.0037
     16 C          13.5403   40.4385    8.5146 C.ar    1  UNL1        0.0345
     17 C          14.7145   41.1736    8.2878 C.ar    1  UNL1        0.1415
     18 C          14.6697   42.3038    7.4636 C.ar    1  UNL1        0.0737
     19 C          13.4651   42.7064    6.8658 C.ar    1  UNL1        0.1415
     20 C          12.3037   41.9650    7.0991 C.ar    1  UNL1        0.0345
     21 C          17.0727   41.6534    8.8526 C.3     1  UNL1        0.2525
     22 O          15.9310   40.8093    8.8663 O.3     1  UNL1       -0.4713
     23 C          14.5488   44.5700    5.6555 C.3     1  UNL1        0.2525
     24 O          13.3965   43.8315    6.0399 O.3     1  UNL1       -0.4713
     25 C           2.3380   42.0348   12.1901 C.2     1  UNL1        0.2305
     26 O           1.6606   42.5839   11.2795 O.2     1  UNL1       -0.2744
     27 N           3.7376   41.7818   12.0254 N.am    1  UNL1       -0.2836
     28 H           4.2150   41.4157   12.8047 H       1  UNL1        0.1549
     29 C           1.6723   41.6375   13.4635 C.3     1  UNL1        0.1117
     30 C          -0.5058   44.5980   14.4077 C.ar    1  UNL1        0.1384
     31 C           0.6208   43.8097   14.1473 C.ar    1  UNL1        0.0331
     32 C           0.4729   42.4870   13.7111 C.ar    1  UNL1       -0.0101
     33 C          -0.8058   41.9461   13.5426 C.ar    1  UNL1       -0.0036
     34 C          -1.9351   42.7284   13.7964 C.ar    1  UNL1        0.0028
     35 C          -1.7869   44.0496   14.2280 C.ar    1  UNL1        0.0369
     36 C           0.8688   46.6433   14.6064 C.3     1  UNL1        0.2525
     37 O          -0.3275   45.9128   14.8487 O.3     1  UNL1       -0.4714
@<TRIPOS>BOND
     1    36    37    1
     2    30    37    1
     3    31    32   ar
     4    29    32    1
     5    29    25    1
     6    25    27   am
     7     2     3   ar
     8     3    12    1
     9     4     5   ar
    10     6     1   ar
    11     7    12    1
    12     7     8    1
    13     8     9    1
    14     9    13    1
    15    14    13    1
    16    14    15    1
    17    16    17   ar
    18    17    22    1
    19    21    22    1
    20    18    19   ar
    21    19    24    1
    22    23    24    1
    23    20    15   ar
    24    10    12   am
    25    33    34   ar
    26    35    30   ar
    27    27     1    1
    28    13    10   am
    29    30    31   ar
    30    32    33   ar
    31    25    26    2
    32     1     2   ar
    33     3     4   ar
    34     5     6   ar
    35    15    16   ar
    36    17    18   ar
    37    19    20   ar
    38    10    11    2
    39    34    35   ar
    40    27    28    1
@<TRIPOS>MOLECULE
MolPort-006-609-944 ChemDiv-V008-9224 MCULE-2105279459 PubChem-46070028 ZINC000034735436 ZINC34735436
 37 40 0 0 0
SMALL
GASTEIGER

@<TRIPOS>ATOM
      1 C          11.1894   37.8640    9.9562 C.ar    1  UNL1        0.0516
      2 C          12.5614   38.1337    9.9406 C.ar    1  UNL1        0.0296
      3 C          13.4998   37.1596   10.3190 C.ar    1  UNL1        0.0565
      4 C          13.0304   35.8913   10.7057 C.ar    1  UNL1        0.0150
      5 C          11.6619   35.6120   10.7271 C.ar    1  UNL1        0.0026
      6 C          10.7447   36.5962   10.3559 C.ar    1  UNL1        0.0148
      7 C          15.8642   36.3205   10.2530 C.3     1  UNL1        0.1015
      8 C          16.9697   36.6034    9.2501 C.3     1  UNL1        0.0435
      9 C          17.7428   37.8523    9.6646 C.3     1  UNL1        0.0971
     10 C          15.4652   38.7700   10.2944 C.2     1  UNL1        0.3112
     11 O          14.7366   39.7613   10.5763 O.2     1  UNL1       -0.2520
     12 N          14.9183   37.4343   10.2764 N.am    1  UNL1       -0.2430
     13 N          16.8576   38.9719    9.9964 N.am    1  UNL1       -0.2596
     14 C          17.4533   40.2943   10.1292 C.3     1  UNL1        0.1219
     15 C          16.9272   41.2116    9.0765 C.ar    1  UNL1        0.0037
     16 C          17.7780   42.1391    8.4681 C.ar    1  UNL1        0.0345
     17 C          17.2813   43.0211    7.4955 C.ar    1  UNL1        0.1415
     18 C          15.9274   42.9666    7.1452 C.ar    1  UNL1        0.0737
     19 C          15.0665   42.0419    7.7569 C.ar    1  UNL1        0.1415
     20 C          15.5742   41.1689    8.7228 C.ar    1  UNL1        0.0345
     21 C          17.9154   44.3637    5.5192 C.3     1  UNL1        0.2525
     22 O          18.1028   43.9577    6.8670 O.3     1  UNL1       -0.4713
     23 C          13.1439   42.7233    6.3600 C.3     1  UNL1        0.2525
     24 O          13.7114   41.9698    7.4235 O.3     1  UNL1       -0.4713
     25 C          10.5217   40.3138    9.6280 C.2     1  UNL1        0.2305
     26 O          11.5851   40.7772   10.1219 O.2     1  UNL1       -0.2744
     27 N          10.2802   38.9035    9.5741 N.am    1  UNL1       -0.2836
     28 H           9.3988   38.6188    9.2404 H       1  UNL1        0.1549
     29 C           9.4945   41.2486    9.0863 C.3     1  UNL1        0.1117
     30 C           9.1579   40.2486    5.4412 C.ar    1  UNL1        0.1384
     31 C           9.6991   40.7185    6.6433 C.ar    1  UNL1        0.0331
     32 C           8.9288   40.7195    7.8130 C.ar    1  UNL1       -0.0101
     33 C           7.6091   40.2575    7.7805 C.ar    1  UNL1       -0.0036
     34 C           7.0636   39.7828    6.5852 C.ar    1  UNL1        0.0028
     35 C           7.8341   39.7784    5.4189 C.ar    1  UNL1        0.0369
     36 C          10.9604   39.2973    4.0418 C.3     1  UNL1        0.2525
     37 O           9.9482   40.2660    4.2879 O.3     1  UNL1       -0.4714
@<TRIPOS>BOND
     1    36    37    1
     2    30    37    1
     3    31    32   ar
     4    29    32    1
     5    29    25    1
     6    25    27   am
     7     2     3   ar
     8     3    12    1
     9     4     5   ar
    10     6     1   ar
    11     7    12    1
    12     7     8    1
    13     8     9    1
    14     9    13    1
    15    14    13    1
    16    14    15    1
    17    16    17   ar
    18    17    22    1
    19    21    22    1
    20    18    19   ar
    21    19    24    1
    22    23    24    1
    23    20    15   ar
    24    10    12   am
    25    33    34   ar
    26    35    30   ar
    27    27     1    1
    28    13    10   am
    29    30    31   ar
    30    32    33   ar
    31    25    26    2
    32     1     2   ar
    33     3     4   ar
    34     5     6   ar
    35    15    16   ar
    36    17    18   ar
    37    19    20   ar
    38    10    11    2
    39    34    35   ar
    40    27    28    1
@<TRIPOS>MOLECULE
MolPort-006-609-944 ChemDiv-V008-9224 MCULE-2105279459 PubChem-46070028 ZINC000034735436 ZINC34735436
 37 40 0 0 0
SMALL
GASTEIGER

@<TRIPOS>ATOM
      1 C           7.7819   41.8331   11.4748 C.ar    1  UNL1        0.0516
      2 C           8.7739   41.3958   10.5915 C.ar    1  UNL1        0.0296
      3 C          10.0221   40.9530   11.0590 C.ar    1  UNL1        0.0565
      4 C          10.2540   40.9455   12.4462 C.ar    1  UNL1        0.0150
      5 C           9.2710   41.3824   13.3372 C.ar    1  UNL1        0.0026
      6 C           8.0401   41.8270   12.8525 C.ar    1  UNL1        0.0148
      7 C          11.4268   39.0698   10.1764 C.3     1  UNL1        0.1015
      8 C          11.5651   38.5400    8.7594 C.3     1  UNL1        0.0435
      9 C          12.6613   39.3037    8.0216 C.3     1  UNL1        0.0971
     10 C          11.7215   41.3366    9.2092 C.2     1  UNL1        0.3112
     11 O          11.6306   42.5922    9.3009 O.2     1  UNL1       -0.2520
     12 N          11.0351   40.4774   10.1441 N.am    1  UNL1       -0.2430
     13 N          12.5247   40.7553    8.1674 N.am    1  UNL1       -0.2596
     14 C          13.3209   41.6051    7.2926 C.3     1  UNL1        0.1219
     15 C          14.7238   41.6990    7.7920 C.ar    1  UNL1        0.0037
     16 C          15.1689   40.8321    8.7943 C.ar    1  UNL1        0.0345
     17 C          16.4802   40.9338    9.2849 C.ar    1  UNL1        0.1415
     18 C          17.3346   41.9132    8.7656 C.ar    1  UNL1        0.0737
     19 C          16.8917   42.7909    7.7635 C.ar    1  UNL1        0.1415
     20 C          15.5842   42.6780    7.2834 C.ar    1  UNL1        0.0345
     21 C          16.1221   39.1742   10.9837 C.3     1  UNL1        0.2525
     22 O          16.9578   40.0837   10.2831 O.3     1  UNL1       -0.4713
     23 C          17.7199   44.1215    5.8516 C.3     1  UNL1        0.2525
     24 O          17.7266   43.7766    7.2307 O.3     1  UNL1       -0.4713
     25 C           5.2697   41.6221   11.0280 C.2     1  UNL1        0.2305
     26 O           5.1685   40.4783   11.5485 O.2     1  UNL1       -0.2744
     27 N           6.5342   42.2878   10.9367 N.am    1  UNL1       -0.2836
     28 H           6.5477   43.1461   10.4546 H       1  UNL1        0.1549
     29 C           4.0517   42.2992   10.4983 C.3     1  UNL1        0.1117
     30 C           5.9468   43.7463    7.5461 C.ar    1  UNL1        0.1384
     31 C           5.6136   42.9470    8.6456 C.ar    1  UNL1        0.0331
     32 C           4.3933   43.1292    9.3085 C.ar    1  UNL1       -0.0101
     33 C           3.5055   44.1200    8.8771 C.ar    1  UNL1       -0.0036
     34 C           3.8293   44.9187    7.7775 C.ar    1  UNL1        0.0028
     35 C           5.0456   44.7338    7.1140 C.ar    1  UNL1        0.0369
     36 C           7.5407   42.2986    6.3314 C.3     1  UNL1        0.2525
     37 O           7.1749   43.5462    6.9084 O.3     1  UNL1       -0.4714
@<TRIPOS>BOND
     1    36    37    1
     2    30    37    1
     3    31    32   ar
     4    29    32    1
     5    29    25    1
     6    25    27   am
     7     2     3   ar
     8     3    12    1
     9     4     5   ar
    10     6     1   ar
    11     7    12    1
    12     7     8    1
    13     8     9    1
    14     9    13    1
    15    14    13    1
    16    14    15    1
    17    16    17   ar
    18    17    22    1
    19    21    22    1
    20    18    19   ar
    21    19    24    1
    22    23    24    1
    23    20    15   ar
    24    10    12   am
    25    33    34   ar
    26    35    30   ar
    27    27     1    1
    28    13    10   am
    29    30    31   ar
    30    32    33   ar
    31    25    26    2
    32     1     2   ar
    33     3     4   ar
    34     5     6   ar
    35    15    16   ar
    36    17    18   ar
    37    19    20   ar
    38    10    11    2
    39    34    35   ar
    40    27    28    1
@<TRIPOS>MOLECULE
MolPort-006-609-944 ChemDiv-V008-9224 MCULE-2105279459 PubChem-46070028 ZINC000034735436 ZINC34735436
 37 40 0 0 0
SMALL
GASTEIGER

@<TRIPOS>ATOM
      1 C           7.8048   41.7962   11.4314 C.ar    1  UNL1        0.0516
      2 C           8.8130   41.3476   10.5726 C.ar    1  UNL1        0.0296
      3 C          10.0595   40.9303   11.0675 C.ar    1  UNL1        0.0565
      4 C          10.2728   40.9604   12.4574 C.ar    1  UNL1        0.0150
      5 C           9.2733   41.4088   13.3241 C.ar    1  UNL1        0.0026
      6 C           8.0444   41.8276   12.8121 C.ar    1  UNL1        0.0148
      7 C          11.5198   39.0495   10.2748 C.3     1  UNL1        0.1015
      8 C          11.6795   38.4614    8.8832 C.3     1  UNL1        0.0435
      9 C          12.7578   39.2217    8.1162 C.3     1  UNL1        0.0971
     10 C          11.7567   41.2785    9.2088 C.2     1  UNL1        0.3112
     11 O          11.6309   42.5339    9.2442 O.2     1  UNL1       -0.2520
     12 N          11.0896   40.4428   10.1784 N.am    1  UNL1       -0.2430
     13 N          12.5807   40.6740    8.1968 N.am    1  UNL1       -0.2596
     14 C          13.3574   41.5059    7.2880 C.3     1  UNL1        0.1219
     15 C          14.7453   41.6880    7.8049 C.ar    1  UNL1        0.0037
     16 C          15.5870   42.6430    7.2272 C.ar    1  UNL1        0.0345
     17 C          16.9018   42.7999    7.6936 C.ar    1  UNL1        0.1415
     18 C          17.3626   41.9889    8.7370 C.ar    1  UNL1        0.0737
     19 C          16.5244   41.0238    9.3170 C.ar    1  UNL1        0.1415
     20 C          15.2175   40.8788    8.8439 C.ar    1  UNL1        0.0345
     21 C          17.8100   44.0295    5.7510 C.3     1  UNL1        0.2525
     22 O          17.7678   43.7445    7.1414 O.3     1  UNL1       -0.4713
     23 C          17.3718   38.8569   10.1527 C.3     1  UNL1        0.2525
     24 O          16.9630   40.2027   10.3591 O.3     1  UNL1       -0.4713
     25 C           5.2894   41.5778   11.0062 C.2     1  UNL1        0.2305
     26 O           5.1793   40.4743   11.6059 O.2     1  UNL1       -0.2744
     27 N           6.5596   42.2236   10.8655 N.am    1  UNL1       -0.2836
     28 H           6.5795   43.0459   10.3244 H       1  UNL1        0.1549
     29 C           4.0761   42.2273   10.4331 C.3     1  UNL1        0.1117
     30 C           5.9985   43.6399    7.4819 C.ar    1  UNL1        0.1384
     31 C           5.6427   42.8367    8.5714 C.ar    1  UNL1        0.0331
     32 C           4.4406   43.0625    9.2537 C.ar    1  UNL1       -0.0101
     33 C           3.5940   44.1007    8.8519 C.ar    1  UNL1       -0.0036
     34 C           3.9404   44.9037    7.7624 C.ar    1  UNL1        0.0028
     35 C           5.1384   44.6754    7.0794 C.ar    1  UNL1        0.0369
     36 C           7.5748   42.1030    6.3569 C.3     1  UNL1        0.2525
     37 O           7.2080   43.3954    6.8243 O.3     1  UNL1       -0.4714
@<TRIPOS>BOND
     1    36    37    1
     2    30    37    1
     3    31    32   ar
     4    29    32    1
     5    29    25    1
     6    25    27   am
     7     2     3   ar
     8     3    12    1
     9     4     5   ar
    10     6     1   ar
    11     7    12    1
    12     7     8    1
    13     8     9    1
    14     9    13    1
    15    14    13    1
    16    14    15    1
    17    16    17   ar
    18    17    22    1
    19    21    22    1
    20    18    19   ar
    21    19    24    1
    22    23    24    1
    23    20    15   ar
    24    10    12   am
    25    33    34   ar
    26    35    30   ar
    27    27     1    1
    28    13    10   am
    29    30    31   ar
    30    32    33   ar
    31    25    26    2
    32     1     2   ar
    33     3     4   ar
    34     5     6   ar
    35    15    16   ar
    36    17    18   ar
    37    19    20   ar
    38    10    11    2
    39    34    35   ar
    40    27    28    1
@<TRIPOS>MOLECULE
MolPort-006-609-944 ChemDiv-V008-9224 MCULE-2105279459 PubChem-46070028 ZINC000034735436 ZINC34735436
 37 40 0 0 0
SMALL
GASTEIGER

@<TRIPOS>ATOM
      1 C           7.6667   40.6086    7.3729 C.ar    1  UNL1        0.0516
      2 C           8.8609   40.4661    8.0864 C.ar    1  UNL1        0.0296
      3 C           9.9233   39.6977    7.5827 C.ar    1  UNL1        0.0565
      4 C           9.7672   39.0782    6.3297 C.ar    1  UNL1        0.0150
      5 C           8.5777   39.2121    5.6097 C.ar    1  UNL1        0.0026
      6 C           7.5302   39.9728    6.1312 C.ar    1  UNL1        0.0148
      7 C          12.1528   40.6490    8.2328 C.3     1  UNL1        0.1015
      8 C          12.7304   40.9210    9.6114 C.3     1  UNL1        0.0435
      9 C          13.4468   39.6777   10.1313 C.3     1  UNL1        0.0971
     10 C          11.5090   38.4127    9.0964 C.2     1  UNL1        0.3112
     11 O          10.8364   37.3489    9.0021 O.2     1  UNL1       -0.2520
     12 N          11.1655   39.5744    8.3115 N.am    1  UNL1       -0.2430
     13 N          12.6356   38.4658    9.9888 N.am    1  UNL1       -0.2596
     14 C          13.0705   37.2687   10.6953 C.3     1  UNL1        0.1219
     15 C          14.2231   36.6363    9.9897 C.ar    1  UNL1        0.0037
     16 C          14.0731   35.3832    9.3887 C.ar    1  UNL1        0.0345
     17 C          15.1619   34.7733    8.7459 C.ar    1  UNL1        0.1415
     18 C          16.3983   35.4285    8.7172 C.ar    1  UNL1        0.0737
     19 C          16.5572   36.6841    9.3242 C.ar    1  UNL1        0.1415
     20 C          15.4648   37.2805    9.9598 C.ar    1  UNL1        0.0345
     21 C          14.3055   32.4549    8.7025 C.3     1  UNL1        0.2525
     22 O          15.0467   33.5244    8.1342 O.3     1  UNL1       -0.4713
     23 C          18.7527   37.2023   10.3358 C.3     1  UNL1        0.2525
     24 O          17.7821   37.3564    9.3086 O.3     1  UNL1       -0.4713
     25 C           6.5654   42.8204    8.0440 C.2     1  UNL1        0.2305
     26 O           7.5415   43.5338    7.6865 O.2     1  UNL1       -0.2744
     27 N           6.6131   41.3927    7.9460 N.am    1  UNL1       -0.2836
     28 H           5.8428   40.8990    8.3097 H       1  UNL1        0.1549
     29 C           5.3351   43.4718    8.5774 C.3     1  UNL1        0.1117
     30 C           2.8697   42.0876   11.1084 C.ar    1  UNL1        0.1384
     31 C           3.4121   42.8341   10.0561 C.ar    1  UNL1        0.0331
     32 C           4.7485   42.6550    9.6774 C.ar    1  UNL1       -0.0101
     33 C           5.5496   41.7326   10.3582 C.ar    1  UNL1       -0.0036
     34 C           5.0139   40.9807   11.4067 C.ar    1  UNL1        0.0028
     35 C           3.6789   41.1571   11.7817 C.ar    1  UNL1        0.0369
     36 C           1.1385   42.5630   12.8081 C.3     1  UNL1        0.2525
     37 O           1.5344   42.2927   11.4689 O.3     1  UNL1       -0.4714
@<TRIPOS>BOND
     1    36    37    1
     2    30    37    1
     3    31    32   ar
     4    29    32    1
     5    29    25    1
     6    25    27   am
     7     2     3   ar
     8     3    12    1
     9     4     5   ar
    10     6     1   ar
    11     7    12    1
    12     7     8    1
    13     8     9    1
    14     9    13    1
    15    14    13    1
    16    14    15    1
    17    16    17   ar
    18    17    22    1
    19    21    22    1
    20    18    19   ar
    21    19    24    1
    22    23    24    1
    23    20    15   ar
    24    10    12   am
    25    33    34   ar
    26    35    30   ar
    27    27     1    1
    28    13    10   am
    29    30    31   ar
    30    32    33   ar
    31    25    26    2
    32     1     2   ar
    33     3     4   ar
    34     5     6   ar
    35    15    16   ar
    36    17    18   ar
    37    19    20   ar
    38    10    11    2
    39    34    35   ar
    40    27    28    1
@<TRIPOS>MOLECULE
MolPort-006-609-944 ChemDiv-V008-9224 MCULE-2105279459 PubChem-46070028 ZINC000034735436 ZINC34735436
 37 40 0 0 0
SMALL
GASTEIGER

@<TRIPOS>ATOM
      1 C          13.3656   39.5277    9.6183 C.ar    1  UNL1        0.0516
      2 C          12.3505   40.0047    8.7832 C.ar    1  UNL1        0.0296
      3 C          11.1633   39.2790    8.5918 C.ar    1  UNL1        0.0565
      4 C          11.0072   38.0578    9.2720 C.ar    1  UNL1        0.0150
      5 C          12.0159   37.5710   10.1068 C.ar    1  UNL1        0.0026
      6 C          13.1921   38.3027   10.2771 C.ar    1  UNL1        0.0148
      7 C           9.6473   38.9905    6.6127 C.3     1  UNL1        0.1015
      8 C           8.1305   39.0277    6.5349 C.3     1  UNL1        0.0435
      9 C           7.6548   40.4604    6.3102 C.3     1  UNL1        0.0971
     10 C           9.4916   41.0796    7.9440 C.2     1  UNL1        0.3112
     11 O          10.0047   41.9255    8.7277 O.2     1  UNL1       -0.2520
     12 N          10.1058   39.7882    7.7482 N.am    1  UNL1       -0.2430
     13 N           8.2866   41.4089    7.2312 N.am    1  UNL1       -0.2596
     14 C           7.7218   42.7483    7.3221 C.3     1  UNL1        0.1219
     15 C           6.5201   42.7488    8.2066 C.ar    1  UNL1        0.0037
     16 C           5.4984   43.6798    7.9979 C.ar    1  UNL1        0.0345
     17 C           4.3781   43.7002    8.8435 C.ar    1  UNL1        0.1415
     18 C           4.2965   42.7847    9.8989 C.ar    1  UNL1        0.0737
     19 C           5.3221   41.8515   10.1178 C.ar    1  UNL1        0.1415
     20 C           6.4313   41.8414    9.2678 C.ar    1  UNL1        0.0345
     21 C           3.1462   45.3295    7.4512 C.3     1  UNL1        0.2525
     22 O           3.3393   44.6143    8.6626 O.3     1  UNL1       -0.4713
     23 C           4.0618   40.2597   11.5283 C.3     1  UNL1        0.2525
     24 O           5.2624   40.9287   11.1653 O.3     1  UNL1       -0.4713
     25 C          15.8988   39.8763    9.4884 C.2     1  UNL1        0.2305
     26 O          16.1497   38.6850    9.1608 O.2     1  UNL1       -0.2744
     27 N          14.5604   40.3058    9.7613 N.am    1  UNL1       -0.2836
     28 H          14.4496   41.2307   10.0799 H       1  UNL1        0.1549
     29 C          17.0136   40.8605    9.5925 C.3     1  UNL1        0.1117
     30 C          15.4017   43.1536    7.0345 C.ar    1  UNL1        0.1384
     31 C          15.5939   42.1048    7.9410 C.ar    1  UNL1        0.0331
     32 C          16.7966   41.9947    8.6502 C.ar    1  UNL1       -0.0101
     33 C          17.8155   42.9309    8.4469 C.ar    1  UNL1       -0.0036
     34 C          17.6290   43.9831    7.5469 C.ar    1  UNL1        0.0028
     35 C          16.4271   44.0947    6.8422 C.ar    1  UNL1        0.0369
     36 C          13.2422   42.1766    6.3315 C.3     1  UNL1        0.2525
     37 O          14.1934   43.2342    6.3355 O.3     1  UNL1       -0.4714
@<TRIPOS>BOND
     1    36    37    1
     2    30    37    1
     3    31    32   ar
     4    29    32    1
     5    29    25    1
     6    25    27   am
     7     2     3   ar
     8     3    12    1
     9     4     5   ar
    10     6     1   ar
    11     7    12    1
    12     7     8    1
    13     8     9    1
    14     9    13    1
    15    14    13    1
    16    14    15    1
    17    16    17   ar
    18    17    22    1
    19    21    22    1
    20    18    19   ar
    21    19    24    1
    22    23    24    1
    23    20    15   ar
    24    10    12   am
    25    33    34   ar
    26    35    30   ar
    27    27     1    1
    28    13    10   am
    29    30    31   ar
    30    32    33   ar
    31    25    26    2
    32     1     2   ar
    33     3     4   ar
    34     5     6   ar
    35    15    16   ar
    36    17    18   ar
    37    19    20   ar
    38    10    11    2
    39    34    35   ar
    40    27    28    1
@<TRIPOS>MOLECULE
MolPort-006-609-944 ChemDiv-V008-9224 MCULE-2105279459 PubChem-46070028 ZINC000034735436 ZINC34735436
 37 40 0 0 0
SMALL
GASTEIGER

@<TRIPOS>ATOM
      1 C          13.3379   39.5837    9.6876 C.ar    1  UNL1        0.0516
      2 C          12.3438   40.0401    8.8163 C.ar    1  UNL1        0.0296
      3 C          11.1552   39.3170    8.6243 C.ar    1  UNL1        0.0565
      4 C          10.9757   38.1200    9.3409 C.ar    1  UNL1        0.0150
      5 C          11.9632   37.6539   10.2119 C.ar    1  UNL1        0.0026
      6 C          13.1413   38.3824   10.3825 C.ar    1  UNL1        0.0148
      7 C           9.7195   39.0005    6.5903 C.3     1  UNL1        0.1015
      8 C           8.2062   39.0066    6.4567 C.3     1  UNL1        0.0435
      9 C           7.7096   40.4295    6.2157 C.3     1  UNL1        0.0971
     10 C           9.4717   41.0839    7.9166 C.2     1  UNL1        0.3112
     11 O           9.9381   41.9389    8.7194 O.2     1  UNL1       -0.2520
     12 N          10.1193   39.8056    7.7426 N.am    1  UNL1       -0.2430
     13 N           8.2873   41.3894    7.1601 N.am    1  UNL1       -0.2596
     14 C           7.6920   42.7167    7.2311 C.3     1  UNL1        0.1219
     15 C           6.5293   42.7176    8.1662 C.ar    1  UNL1        0.0037
     16 C           6.4419   41.7533    9.1745 C.ar    1  UNL1        0.0345
     17 C           5.3370   41.7350   10.0403 C.ar    1  UNL1        0.1415
     18 C           4.3230   42.6865    9.8812 C.ar    1  UNL1        0.0737
     19 C           4.4017   43.6535    8.8667 C.ar    1  UNL1        0.1415
     20 C           5.5076   43.6611    8.0124 C.ar    1  UNL1        0.0345
     21 C           3.9650   40.3083   11.5210 C.3     1  UNL1        0.2525
     22 O           5.2188   40.7882   11.0585 O.3     1  UNL1       -0.4713
     23 C           3.2283   45.3203    7.4679 C.3     1  UNL1        0.2525
     24 O           3.4012   44.6126    8.6886 O.3     1  UNL1       -0.4713
     25 C          15.8672   39.9392    9.5106 C.2     1  UNL1        0.2305
     26 O          16.1107   38.7604    9.1357 O.2     1  UNL1       -0.2744
     27 N          14.5355   40.3575    9.8297 N.am    1  UNL1       -0.2836
     28 H          14.4321   41.2706   10.1830 H       1  UNL1        0.1549
     29 C          16.9840   40.9203    9.6230 C.3     1  UNL1        0.1117
     30 C          15.4967   43.1126    6.9060 C.ar    1  UNL1        0.1384
     31 C          15.6597   42.0793    7.8358 C.ar    1  UNL1        0.0331
     32 C          16.7952   42.0373    8.6546 C.ar    1  UNL1       -0.0101
     33 C          17.7768   43.0268    8.5384 C.ar    1  UNL1       -0.0036
     34 C          17.6189   44.0638    7.6157 C.ar    1  UNL1        0.0028
     35 C          16.4835   44.1072    6.8015 C.ar    1  UNL1        0.0369
     36 C          13.2368   42.2826    6.3439 C.3     1  UNL1        0.2525
     37 O          14.3563   43.1248    6.0972 O.3     1  UNL1       -0.4714
@<TRIPOS>BOND
     1    36    37    1
     2    30    37    1
     3    31    32   ar
     4    29    32    1
     5    29    25    1
     6    25    27   am
     7     2     3   ar
     8     3    12    1
     9     4     5   ar
    10     6     1   ar
    11     7    12    1
    12     7     8    1
    13     8     9    1
    14     9    13    1
    15    14    13    1
    16    14    15    1
    17    16    17   ar
    18    17    22    1
    19    21    22    1
    20    18    19   ar
    21    19    24    1
    22    23    24    1
    23    20    15   ar
    24    10    12   am
    25    33    34   ar
    26    35    30   ar
    27    27     1    1
    28    13    10   am
    29    30    31   ar
    30    32    33   ar
    31    25    26    2
    32     1     2   ar
    33     3     4   ar
    34     5     6   ar
    35    15    16   ar
    36    17    18   ar
    37    19    20   ar
    38    10    11    2
    39    34    35   ar
    40    27    28    1
@<TRIPOS>MOLECULE
MolPort-006-609-944 ChemDiv-V008-9224 MCULE-2105279459 PubChem-46070028 ZINC000034735436 ZINC34735436
 37 40 0 0 0
SMALL
GASTEIGER

@<TRIPOS>ATOM
      1 C           8.5057   41.3955    8.3195 C.ar    1  UNL1        0.0516
      2 C           9.8661   41.1760    8.5567 C.ar    1  UNL1        0.0296
      3 C          10.8178   41.3289    7.5352 C.ar    1  UNL1        0.0565
      4 C          10.3746   41.7230    6.2599 C.ar    1  UNL1        0.0150
      5 C           9.0177   41.9427    6.0114 C.ar    1  UNL1        0.0026
      6 C           8.0864   41.7770    7.0375 C.ar    1  UNL1        0.0148
      7 C          13.2077   41.6035    6.8197 C.3     1  UNL1        0.1015
      8 C          14.3703   42.2626    7.5421 C.3     1  UNL1        0.0435
      9 C          15.0707   41.2459    8.4394 C.3     1  UNL1        0.0971
     10 C          12.7255   40.4332    8.9549 C.2     1  UNL1        0.3112
     11 O          11.9464   39.7709    9.6948 O.2     1  UNL1       -0.2520
     12 N          12.2259   41.1262    7.7914 N.am    1  UNL1       -0.2430
     13 N          14.1278   40.4910    9.2689 N.am    1  UNL1       -0.2596
     14 C          14.6684   39.6999   10.3658 C.3     1  UNL1        0.1219
     15 C          14.7981   38.2692    9.9626 C.ar    1  UNL1        0.0037
     16 C          15.9215   37.8429    9.2482 C.ar    1  UNL1        0.0345
     17 C          16.0354   36.5031    8.8449 C.ar    1  UNL1        0.1415
     18 C          15.0127   35.6010    9.1598 C.ar    1  UNL1        0.0737
     19 C          13.8791   36.0241    9.8714 C.ar    1  UNL1        0.1415
     20 C          13.7789   37.3605   10.2678 C.ar    1  UNL1        0.0345
     21 C          18.0355   35.0644    8.6450 C.3     1  UNL1        0.2525
     22 O          17.1437   36.0434    8.1326 O.3     1  UNL1       -0.4713
     23 C          11.6661   35.5597   10.8707 C.3     1  UNL1        0.2525
     24 O          12.8456   35.1416   10.1963 O.3     1  UNL1       -0.4713
     25 C           7.6053   41.8657   10.6697 C.2     1  UNL1        0.2305
     26 O           8.5453   42.6442   10.9860 O.2     1  UNL1       -0.2744
     27 N           7.5809   41.2083    9.3980 N.am    1  UNL1       -0.2836
     28 H           6.8540   40.5612    9.2492 H       1  UNL1        0.1549
     29 C           6.4948   41.6241   11.6345 C.3     1  UNL1        0.1117
     30 C           3.4988   42.6382    9.5379 C.ar    1  UNL1        0.1384
     31 C           4.7399   42.6761   10.1837 C.ar    1  UNL1        0.0331
     32 C           5.1873   41.5726   10.9211 C.ar    1  UNL1       -0.0101
     33 C           4.3880   40.4293   11.0215 C.ar    1  UNL1       -0.0036
     34 C           3.1499   40.3826   10.3759 C.ar    1  UNL1        0.0028
     35 C           2.7057   41.4827    9.6369 C.ar    1  UNL1        0.0369
     36 C           3.9738   44.5672    8.0664 C.3     1  UNL1        0.2525
     37 O           3.0752   43.7574    8.8147 O.3     1  UNL1       -0.4714
@<TRIPOS>BOND
     1    36    37    1
     2    30    37    1
     3    31    32   ar
     4    29    32    1
     5    29    25    1
     6    25    27   am
     7     2     3   ar
     8     3    12    1
     9     4     5   ar
    10     6     1   ar
    11     7    12    1
    12     7     8    1
    13     8     9    1
    14     9    13    1
    15    14    13    1
    16    14    15    1
    17    16    17   ar
    18    17    22    1
    19    21    22    1
    20    18    19   ar
    21    19    24    1
    22    23    24    1
    23    20    15   ar
    24    10    12   am
    25    33    34   ar
    26    35    30   ar
    27    27     1    1
    28    13    10   am
    29    30    31   ar
    30    32    33   ar
    31    25    26    2
    32     1     2   ar
    33     3     4   ar
    34     5     6   ar
    35    15    16   ar
    36    17    18   ar
    37    19    20   ar
    38    10    11    2
    39    34    35   ar
    40    27    28    1
@<TRIPOS>MOLECULE
MolPort-006-609-944 ChemDiv-V008-9224 MCULE-2105279459 PubChem-46070028 ZINC000034735436 ZINC34735436
 37 40 0 0 0
SMALL
GASTEIGER

@<TRIPOS>ATOM
      1 C           7.7179   40.6182    7.1780 C.ar    1  UNL1        0.0516
      2 C           8.9123   40.5420    7.9012 C.ar    1  UNL1        0.0296
      3 C          10.0098   39.8094    7.4201 C.ar    1  UNL1        0.0565
      4 C           9.8888   39.1578    6.1795 C.ar    1  UNL1        0.0150
      5 C           8.6995   39.2255    5.4500 C.ar    1  UNL1        0.0026
      6 C           7.6170   39.9514    5.9492 C.ar    1  UNL1        0.0148
      7 C          12.2207   40.8385    8.0128 C.3     1  UNL1        0.1015
      8 C          12.7886   41.2091    9.3723 C.3     1  UNL1        0.0435
      9 C          13.5238   40.0145    9.9736 C.3     1  UNL1        0.0971
     10 C          11.6113   38.6524    9.0180 C.2     1  UNL1        0.3112
     11 O          10.9569   37.5735    8.9913 O.2     1  UNL1       -0.2520
     12 N          11.2512   39.7547    8.1585 N.am    1  UNL1       -0.2430
     13 N          12.7336   38.7824    9.9080 N.am    1  UNL1       -0.2596
     14 C          13.1858   37.6412   10.6918 C.3     1  UNL1        0.1219
     15 C          14.4634   37.1027   10.1401 C.ar    1  UNL1        0.0037
     16 C          15.6868   37.6141   10.5824 C.ar    1  UNL1        0.0345
     17 C          16.8903   37.1282   10.0474 C.ar    1  UNL1        0.1415
     18 C          16.8533   36.1323    9.0647 C.ar    1  UNL1        0.0737
     19 C          15.6278   35.6191    8.6117 C.ar    1  UNL1        0.1415
     20 C          14.4372   36.1110    9.1535 C.ar    1  UNL1        0.0345
     21 C          18.4439   38.9990   10.4912 C.3     1  UNL1        0.2525
     22 O          18.1288   37.6146   10.4675 O.3     1  UNL1       -0.4713
     23 C          15.7280   33.2449    7.9299 C.3     1  UNL1        0.2525
     24 O          15.5665   34.6253    7.6313 O.3     1  UNL1       -0.4713
     25 C           6.5783   42.7855    7.9262 C.2     1  UNL1        0.2305
     26 O           7.5806   43.5141    7.6938 O.2     1  UNL1       -0.2744
     27 N           6.6278   41.3682    7.7282 N.am    1  UNL1       -0.2836
     28 H           5.8312   40.8565    7.9978 H       1  UNL1        0.1549
     29 C           5.3146   43.4076    8.4143 C.3     1  UNL1        0.1117
     30 C           2.9299   42.1016   11.0616 C.ar    1  UNL1        0.1384
     31 C           3.4331   42.7986    9.9572 C.ar    1  UNL1        0.0331
     32 C           4.7703   42.6419    9.5714 C.ar    1  UNL1       -0.0101
     33 C           5.6115   41.7922   10.2970 C.ar    1  UNL1       -0.0036
     34 C           5.1151   41.0897   11.3978 C.ar    1  UNL1        0.0028
     35 C           3.7794   41.2435   11.7801 C.ar    1  UNL1        0.0369
     36 C           1.1975   42.5456   12.7686 C.3     1  UNL1        0.2525
     37 O           1.5927   42.2831   11.4276 O.3     1  UNL1       -0.4714
@<TRIPOS>BOND
     1    36    37    1
     2    30    37    1
     3    31    32   ar
     4    29    32    1
     5    29    25    1
     6    25    27   am
     7     2     3   ar
     8     3    12    1
     9     4     5   ar
    10     6     1   ar
    11     7    12    1
    12     7     8    1
    13     8     9    1
    14     9    13    1
    15    14    13    1
    16    14    15    1
    17    16    17   ar
    18    17    22    1
    19    21    22    1
    20    18    19   ar
    21    19    24    1
    22    23    24    1
    23    20    15   ar
    24    10    12   am
    25    33    34   ar
    26    35    30   ar
    27    27     1    1
    28    13    10   am
    29    30    31   ar
    30    32    33   ar
    31    25    26    2
    32     1     2   ar
    33     3     4   ar
    34     5     6   ar
    35    15    16   ar
    36    17    18   ar
    37    19    20   ar
    38    10    11    2
    39    34    35   ar
    40    27    28    1
@<TRIPOS>MOLECULE
MolPort-006-609-944 ChemDiv-V008-9224 MCULE-2105279459 PubChem-46070028 ZINC000034735436 ZINC34735436
 37 40 0 0 0
SMALL
GASTEIGER

@<TRIPOS>ATOM
      1 C           8.5065   41.4475   10.5533 C.ar    1  UNL1        0.0516
      2 C           9.8267   41.0733   10.2842 C.ar    1  UNL1        0.0296
      3 C          10.7396   40.8248   11.3223 C.ar    1  UNL1        0.0565
      4 C          10.2938   40.9481   12.6506 C.ar    1  UNL1        0.0150
      5 C           8.9778   41.3236   12.9306 C.ar    1  UNL1        0.0026
      6 C           8.0882   41.5748   11.8850 C.ar    1  UNL1        0.0148
      7 C          12.7344   39.4130   11.8933 C.3     1  UNL1        0.1015
      8 C          13.4987   38.4168   11.0380 C.3     1  UNL1        0.0435
      9 C          14.6034   39.1323   10.2655 C.3     1  UNL1        0.0971
     10 C          12.8837   40.9706    9.9666 C.2     1  UNL1        0.3112
     11 O          12.5031   42.0101    9.3602 O.2     1  UNL1       -0.2520
     12 N          12.0960   40.4129   11.0399 N.am    1  UNL1       -0.2430
     13 N          14.1201   40.3396    9.5903 N.am    1  UNL1       -0.2596
     14 C          14.9866   40.9560    8.5951 C.3     1  UNL1        0.1219
     15 C          14.1734   41.6003    7.5227 C.ar    1  UNL1        0.0037
     16 C          13.0032   40.9857    7.0676 C.ar    1  UNL1        0.0345
     17 C          12.2489   41.5757    6.0411 C.ar    1  UNL1        0.1415
     18 C          12.6818   42.7803    5.4752 C.ar    1  UNL1        0.0737
     19 C          13.8593   43.3992    5.9233 C.ar    1  UNL1        0.1415
     20 C          14.6002   42.8017    6.9465 C.ar    1  UNL1        0.0345
     21 C          11.0507   40.1165    4.4456 C.3     1  UNL1        0.2525
     22 O          11.0752   40.9906    5.5645 O.3     1  UNL1       -0.4713
     23 C          15.5167   45.2288    5.7897 C.3     1  UNL1        0.2525
     24 O          14.3110   44.6015    5.3727 O.3     1  UNL1       -0.4713
     25 C           7.5916   41.0010    8.2041 C.2     1  UNL1        0.2305
     26 O           8.4374   40.1063    7.9327 O.2     1  UNL1       -0.2744
     27 N           7.6263   41.7027    9.4517 N.am    1  UNL1       -0.2836
     28 H           6.9790   42.4359    9.5642 H       1  UNL1        0.1549
     29 C           6.5317   41.3362    7.2107 C.3     1  UNL1        0.1117
     30 C           3.7012   42.9171    9.1827 C.ar    1  UNL1        0.1384
     31 C           4.5991   41.9692    8.6789 C.ar    1  UNL1        0.0331
     32 C           5.5950   42.3510    7.7711 C.ar    1  UNL1       -0.0101
     33 C           5.6892   43.6837    7.3575 C.ar    1  UNL1       -0.0036
     34 C           4.7992   44.6364    7.8596 C.ar    1  UNL1        0.0028
     35 C           3.8079   44.2555    8.7685 C.ar    1  UNL1        0.0369
     36 C           3.0047   42.1614   11.4312 C.3     1  UNL1        0.2525
     37 O           2.7130   42.5057   10.0822 O.3     1  UNL1       -0.4714
@<TRIPOS>BOND
     1    36    37    1
     2    30    37    1
     3    31    32   ar
     4    29    32    1
     5    29    25    1
     6    25    27   am
     7     2     3   ar
     8     3    12    1
     9     4     5   ar
    10     6     1   ar
    11     7    12    1
    12     7     8    1
    13     8     9    1
    14     9    13    1
    15    14    13    1
    16    14    15    1
    17    16    17   ar
    18    17    22    1
    19    21    22    1
    20    18    19   ar
    21    19    24    1
    22    23    24    1
    23    20    15   ar
    24    10    12   am
    25    33    34   ar
    26    35    30   ar
    27    27     1    1
    28    13    10   am
    29    30    31   ar
    30    32    33   ar
    31    25    26    2
    32     1     2   ar
    33     3     4   ar
    34     5     6   ar
    35    15    16   ar
    36    17    18   ar
    37    19    20   ar
    38    10    11    2
    39    34    35   ar
    40    27    28    1
