@<TRIPOS>MOLECULE
MolPort-020-292-996 MCULE-1986705594 PubChem-110265463
 28 31 0 0 0
SMALL
GASTEIGER

@<TRIPOS>ATOM
      1 C           8.5079   39.0982    6.3018 C.3     1  UNL1        0.0178
      2 C           9.9892   39.2377    6.6124 C.3     1  UNL1        0.0087
      3 C          10.1739   40.2166    7.7646 C.3     1  UNL1        0.0563
      4 C           9.5312   41.5671    7.4217 C.3     1  UNL1        0.0780
      5 C           7.9115   40.4733    5.9841 C.3     1  UNL1        0.0721
      6 N           8.1074   41.4403    7.0740 N.3     1  UNL1       -0.2720
      7 C          11.6206   40.3821    8.1049 C.ar    1  UNL1        0.0614
      8 C          13.6926   41.4710    7.6551 C.ar    1  UNL1        0.1339
      9 C          14.3112   40.7392    8.6777 C.ar    1  UNL1        0.0345
     10 C          13.5660   39.8202    9.4165 C.ar    1  UNL1        0.0041
     11 C          12.2133   39.6364    9.1328 C.ar    1  UNL1        0.0149
     12 N          12.3705   41.2718    7.3993 N.ar    1  UNL1       -0.2348
     13 N          14.4127   42.4281    6.8653 N.pl3   1  UNL1       -0.2680
     14 H          13.9560   42.7577    6.0578 H       1  UNL1        0.1565
     15 C          15.7206   42.9605    7.1155 C.ar    1  UNL1        0.2218
     16 C          17.5469   44.2659    6.3653 C.ar    1  UNL1        0.1034
     17 C          18.2347   44.0079    7.5494 C.ar    1  UNL1        0.0414
     18 C          17.6195   43.2067    8.5091 C.ar    1  UNL1        0.1034
     19 N          16.3091   43.7407    6.1703 N.ar    1  UNL1       -0.2120
     20 N          16.3806   42.6999    8.2773 N.ar    1  UNL1       -0.2120
     21 C           7.3356   41.0320    8.2442 C.3     1  UNL1        0.0768
     22 C           7.0929   42.2287    9.1494 C.3     1  UNL1        0.0437
     23 C           5.7307   42.1609    9.7503 C.ar    1  UNL1       -0.0208
     24 C           5.5265   41.4174   10.9175 C.ar    1  UNL1       -0.0042
     25 C           4.2558   41.3585   11.4979 C.ar    1  UNL1       -0.0003
     26 C           3.1877   42.0470   10.9144 C.ar    1  UNL1       -0.0000
     27 C           3.3904   42.7963    9.7513 C.ar    1  UNL1       -0.0003
     28 C           4.6608   42.8555    9.1707 C.ar    1  UNL1       -0.0042
@<TRIPOS>BOND
     1     1     2    1
     2     2     3    1
     3     3     4    1
     4     3     7    1
     5     4     6    1
     6     5     6    1
     7     5     1    1
     8    21     6    1
     9    21    22    1
    10    22    23    1
    11    24    25   ar
    12    26    27   ar
    13    28    23   ar
    14     8    12   ar
    15     8    13    1
    16     9    10   ar
    17    11     7   ar
    18    15    20   ar
    19    16    19   ar
    20    17    18   ar
    21    13    15    1
    22    23    24   ar
    23    25    26   ar
    24    27    28   ar
    25     7    12   ar
    26     8     9   ar
    27    10    11   ar
    28    15    19   ar
    29    16    17   ar
    30    18    20   ar
    31    13    14    1
@<TRIPOS>MOLECULE
MolPort-020-292-996 MCULE-1986705594 PubChem-110265463
 28 31 0 0 0
SMALL
GASTEIGER

@<TRIPOS>ATOM
      1 C           9.5262   43.8249    9.9829 C.3     1  UNL1        0.0178
      2 C          10.9027   43.1873   10.0767 C.3     1  UNL1        0.0087
      3 C          10.7789   41.6842    9.8634 C.3     1  UNL1        0.0563
      4 C           9.7990   41.0828   10.8795 C.3     1  UNL1        0.0780
      5 C           8.5832   43.1789   11.0032 C.3     1  UNL1        0.0721
      6 N           8.4752   41.7229   10.8309 N.3     1  UNL1       -0.2720
      7 C          12.1142   41.0161    9.9459 C.ar    1  UNL1        0.0614
      8 C          14.3339   40.8209    9.0997 C.ar    1  UNL1        0.1339
      9 C          14.6144   39.8181   10.0377 C.ar    1  UNL1        0.0345
     10 C          13.6254   39.4170   10.9358 C.ar    1  UNL1        0.0041
     11 C          12.3668   40.0156   10.8941 C.ar    1  UNL1        0.0149
     12 N          13.0967   41.3884    9.0811 N.ar    1  UNL1       -0.2348
     13 N          15.3146   41.2701    8.1538 N.pl3   1  UNL1       -0.2680
     14 H          16.1146   40.7049    8.0548 H       1  UNL1        0.1565
     15 C          15.2648   42.4470    7.3357 C.ar    1  UNL1        0.2218
     16 C          14.1794   43.6743    5.6276 C.ar    1  UNL1        0.1034
     17 C          15.1256   44.6911    5.7387 C.ar    1  UNL1        0.0414
     18 C          16.1446   44.5450    6.6778 C.ar    1  UNL1        0.1034
     19 N          14.2651   42.5765    6.4235 N.ar    1  UNL1       -0.2120
     20 N          16.1965   43.4324    7.4555 N.ar    1  UNL1       -0.2120
     21 C           7.8137   41.4208    9.5648 C.3     1  UNL1        0.0768
     22 C           6.3059   41.4114    9.7562 C.3     1  UNL1        0.0437
     23 C           5.6810   42.5569    9.0361 C.ar    1  UNL1       -0.0208
     24 C           6.3964   43.2131    8.0289 C.ar    1  UNL1       -0.0042
     25 C           5.8148   44.2798    7.3370 C.ar    1  UNL1       -0.0003
     26 C           4.5144   44.6894    7.6482 C.ar    1  UNL1       -0.0000
     27 C           3.7946   44.0310    8.6500 C.ar    1  UNL1       -0.0003
     28 C           4.3758   42.9643    9.3421 C.ar    1  UNL1       -0.0042
@<TRIPOS>BOND
     1     1     2    1
     2     2     3    1
     3     3     4    1
     4     3     7    1
     5     4     6    1
     6     5     6    1
     7     5     1    1
     8    21     6    1
     9    21    22    1
    10    22    23    1
    11    24    25   ar
    12    26    27   ar
    13    28    23   ar
    14     8    12   ar
    15     8    13    1
    16     9    10   ar
    17    11     7   ar
    18    15    20   ar
    19    16    19   ar
    20    17    18   ar
    21    13    15    1
    22    23    24   ar
    23    25    26   ar
    24    27    28   ar
    25     7    12   ar
    26     8     9   ar
    27    10    11   ar
    28    15    19   ar
    29    16    17   ar
    30    18    20   ar
    31    13    14    1
@<TRIPOS>MOLECULE
MolPort-020-292-996 MCULE-1986705594 PubChem-110265463
 28 31 0 0 0
SMALL
GASTEIGER

@<TRIPOS>ATOM
      1 C          11.2194   41.5506    6.0890 C.3     1  UNL1        0.0178
      2 C          12.6028   42.1623    6.2380 C.3     1  UNL1        0.0087
      3 C          13.3641   41.4289    7.3347 C.3     1  UNL1        0.0563
      4 C          12.5741   41.4727    8.6494 C.3     1  UNL1        0.0780
      5 C          10.4805   41.6030    7.4302 C.3     1  UNL1        0.0721
      6 N          11.2158   40.9255    8.5079 N.3     1  UNL1       -0.2720
      7 C          14.7349   41.9992    7.5135 C.ar    1  UNL1        0.0614
      8 C          16.8712   41.8402    8.5583 C.ar    1  UNL1        0.1339
      9 C          17.2927   43.0017    7.8969 C.ar    1  UNL1        0.0345
     10 C          16.4164   43.6620    7.0357 C.ar    1  UNL1        0.0041
     11 C          15.1294   43.1628    6.8394 C.ar    1  UNL1        0.0149
     12 N          15.6094   41.3747    8.3482 N.ar    1  UNL1       -0.2348
     13 N          17.7322   41.1231    9.4543 N.pl3   1  UNL1       -0.2680
     14 H          18.5460   41.5941    9.7460 H       1  UNL1        0.1565
     15 C          17.5450   39.7997    9.9743 C.ar    1  UNL1        0.2218
     16 C          18.2887   37.5564   10.1018 C.ar    1  UNL1        0.1034
     17 C          17.2280   37.2389   10.9480 C.ar    1  UNL1        0.0414
     18 C          16.3311   38.2490   11.2898 C.ar    1  UNL1        0.1034
     19 N          18.4277   38.8238    9.6326 N.ar    1  UNL1       -0.2120
     20 N          16.5038   39.5044   10.8002 N.ar    1  UNL1       -0.2120
     21 C          11.2739   39.4907    8.2432 C.3     1  UNL1        0.0768
     22 C          11.2288   38.7191    9.5520 C.3     1  UNL1        0.0437
     23 C          12.2185   37.6049    9.5354 C.ar    1  UNL1       -0.0208
     24 C          11.9733   36.4515   10.2880 C.ar    1  UNL1       -0.0042
     25 C          12.8880   35.3941   10.2687 C.ar    1  UNL1       -0.0003
     26 C          14.0476   35.4865    9.4927 C.ar    1  UNL1       -0.0000
     27 C          14.2919   36.6356    8.7342 C.ar    1  UNL1       -0.0003
     28 C          13.3776   37.6931    8.7533 C.ar    1  UNL1       -0.0042
@<TRIPOS>BOND
     1     1     2    1
     2     2     3    1
     3     3     4    1
     4     3     7    1
     5     4     6    1
     6     5     6    1
     7     5     1    1
     8    21     6    1
     9    21    22    1
    10    22    23    1
    11    24    25   ar
    12    26    27   ar
    13    28    23   ar
    14     8    12   ar
    15     8    13    1
    16     9    10   ar
    17    11     7   ar
    18    15    20   ar
    19    16    19   ar
    20    17    18   ar
    21    13    15    1
    22    23    24   ar
    23    25    26   ar
    24    27    28   ar
    25     7    12   ar
    26     8     9   ar
    27    10    11   ar
    28    15    19   ar
    29    16    17   ar
    30    18    20   ar
    31    13    14    1
@<TRIPOS>MOLECULE
MolPort-020-292-996 MCULE-1986705594 PubChem-110265463
 28 31 0 0 0
SMALL
GASTEIGER

@<TRIPOS>ATOM
      1 C          11.1445   41.0021    9.5124 C.3     1  UNL1        0.0178
      2 C          12.5950   40.9623    9.9649 C.3     1  UNL1        0.0087
      3 C          13.1822   39.5905    9.6592 C.3     1  UNL1        0.0563
      4 C          12.3435   38.4932   10.3278 C.3     1  UNL1        0.0780
      5 C          10.3562   39.8786   10.1936 C.3     1  UNL1        0.0721
      6 N          10.9272   38.5491    9.9337 N.3     1  UNL1       -0.2720
      7 C          14.6125   39.5085   10.0879 C.ar    1  UNL1        0.0614
      8 C          16.8431   40.3156    9.8554 C.ar    1  UNL1        0.1339
      9 C          17.2834   39.4102   10.8302 C.ar    1  UNL1        0.0345
     10 C          16.3686   38.5479   11.4346 C.ar    1  UNL1        0.0041
     11 C          15.0249   38.5928   11.0653 C.ar    1  UNL1        0.0149
     12 N          15.5255   40.3383    9.5138 N.ar    1  UNL1       -0.2348
     13 N          17.7419   41.2238    9.2029 N.pl3   1  UNL1       -0.2680
     14 H          18.7003   41.0951    9.3873 H       1  UNL1        0.1565
     15 C          17.4061   42.2973    8.3132 C.ar    1  UNL1        0.2218
     16 C          15.7882   43.3599    6.9511 C.ar    1  UNL1        0.1034
     17 C          16.7115   44.3420    6.5977 C.ar    1  UNL1        0.0414
     18 C          17.9954   44.2644    7.1334 C.ar    1  UNL1        0.1034
     19 N          16.1496   42.3607    7.7977 N.ar    1  UNL1       -0.2120
     20 N          18.3189   43.2497    7.9768 N.ar    1  UNL1       -0.2120
     21 C          10.7823   38.2145    8.5199 C.3     1  UNL1        0.0768
     22 C           9.6246   38.9942    7.9180 C.3     1  UNL1        0.0437
     23 C           9.8769   39.2730    6.4758 C.ar    1  UNL1       -0.0208
     24 C           9.0889   38.6489    5.5031 C.ar    1  UNL1       -0.0042
     25 C           9.3073   38.9140    4.1477 C.ar    1  UNL1       -0.0003
     26 C          10.3116   39.8077    3.7629 C.ar    1  UNL1       -0.0000
     27 C          11.0965   40.4381    4.7334 C.ar    1  UNL1       -0.0003
     28 C          10.8784   40.1732    6.0887 C.ar    1  UNL1       -0.0042
@<TRIPOS>BOND
     1     1     2    1
     2     2     3    1
     3     3     4    1
     4     3     7    1
     5     4     6    1
     6     5     6    1
     7     5     1    1
     8    21     6    1
     9    21    22    1
    10    22    23    1
    11    24    25   ar
    12    26    27   ar
    13    28    23   ar
    14     8    12   ar
    15     8    13    1
    16     9    10   ar
    17    11     7   ar
    18    15    20   ar
    19    16    19   ar
    20    17    18   ar
    21    13    15    1
    22    23    24   ar
    23    25    26   ar
    24    27    28   ar
    25     7    12   ar
    26     8     9   ar
    27    10    11   ar
    28    15    19   ar
    29    16    17   ar
    30    18    20   ar
    31    13    14    1
@<TRIPOS>MOLECULE
MolPort-020-292-996 MCULE-1986705594 PubChem-110265463
 28 31 0 0 0
SMALL
GASTEIGER

@<TRIPOS>ATOM
      1 C          10.7500   38.0784    9.2718 C.3     1  UNL1        0.0178
      2 C          12.2391   38.0162    9.5702 C.3     1  UNL1        0.0087
      3 C          12.6746   39.3125   10.2409 C.3     1  UNL1        0.0563
      4 C          12.3178   40.5141    9.3558 C.3     1  UNL1        0.0780
      5 C          10.4447   39.3023    8.4020 C.3     1  UNL1        0.0721
      6 N          10.8859   40.5605    9.0211 N.3     1  UNL1       -0.2720
      7 C          14.1366   39.2927   10.5544 C.ar    1  UNL1        0.0614
      8 C          16.3301   40.0579   10.0213 C.ar    1  UNL1        0.1339
      9 C          16.8613   39.3016   11.0748 C.ar    1  UNL1        0.0345
     10 C          16.0107   38.5350   11.8713 C.ar    1  UNL1        0.0041
     11 C          14.6404   38.5265   11.6143 C.ar    1  UNL1        0.0149
     12 N          14.9884   40.0315    9.7926 N.ar    1  UNL1       -0.2348
     13 N          17.1601   40.8630    9.1721 N.pl3   1  UNL1       -0.2680
     14 H          18.0992   40.5801    9.0866 H       1  UNL1        0.1565
     15 C          16.7807   42.0322    8.4333 C.ar    1  UNL1        0.2218
     16 C          17.3025   44.2282    7.7209 C.ar    1  UNL1        0.1034
     17 C          16.0964   44.3038    7.0271 C.ar    1  UNL1        0.0414
     18 C          15.2444   43.2018    7.0621 C.ar    1  UNL1        0.1034
     19 N          17.6216   43.1002    8.4078 N.ar    1  UNL1       -0.2120
     20 N          15.5989   42.0917    7.7602 N.ar    1  UNL1       -0.2120
     21 C          10.0951   40.8281   10.2190 C.3     1  UNL1        0.0768
     22 C           9.2806   42.0975   10.0304 C.3     1  UNL1        0.0437
     23 C           7.8295   41.7753    9.9224 C.ar    1  UNL1       -0.0208
     24 C           7.0440   41.7282   11.0790 C.ar    1  UNL1       -0.0042
     25 C           5.6786   41.4409   10.9881 C.ar    1  UNL1       -0.0003
     26 C           5.0953   41.2048    9.7394 C.ar    1  UNL1       -0.0000
     27 C           5.8767   41.2577    8.5810 C.ar    1  UNL1       -0.0003
     28 C           7.2419   41.5448    8.6715 C.ar    1  UNL1       -0.0042
@<TRIPOS>BOND
     1     1     2    1
     2     2     3    1
     3     3     4    1
     4     3     7    1
     5     4     6    1
     6     5     6    1
     7     5     1    1
     8    21     6    1
     9    21    22    1
    10    22    23    1
    11    24    25   ar
    12    26    27   ar
    13    28    23   ar
    14     8    12   ar
    15     8    13    1
    16     9    10   ar
    17    11     7   ar
    18    15    20   ar
    19    16    19   ar
    20    17    18   ar
    21    13    15    1
    22    23    24   ar
    23    25    26   ar
    24    27    28   ar
    25     7    12   ar
    26     8     9   ar
    27    10    11   ar
    28    15    19   ar
    29    16    17   ar
    30    18    20   ar
    31    13    14    1
@<TRIPOS>MOLECULE
MolPort-020-292-996 MCULE-1986705594 PubChem-110265463
 28 31 0 0 0
SMALL
GASTEIGER

@<TRIPOS>ATOM
      1 C          10.5554   40.3653    5.6004 C.3     1  UNL1        0.0178
      2 C          11.7224   40.1735    6.5551 C.3     1  UNL1        0.0087
      3 C          11.2226   40.2729    7.9905 C.3     1  UNL1        0.0563
      4 C          10.5147   41.6157    8.2143 C.3     1  UNL1        0.0780
      5 C           9.8736   41.7095    5.8761 C.3     1  UNL1        0.0721
      6 N           9.4114   41.8347    7.2661 N.3     1  UNL1       -0.2720
      7 C          12.3415   40.0875    8.9651 C.ar    1  UNL1        0.0614
      8 C          14.6690   40.2934    9.4356 C.ar    1  UNL1        0.1339
      9 C          14.4667   39.7682   10.7191 C.ar    1  UNL1        0.0345
     10 C          13.1821   39.4014   11.1200 C.ar    1  UNL1        0.0041
     11 C          12.1101   39.5594   10.2425 C.ar    1  UNL1        0.0149
     12 N          13.6047   40.4371    8.5992 N.ar    1  UNL1       -0.2348
     13 N          15.9692   40.6862    8.9733 N.pl3   1  UNL1       -0.2680
     14 H          16.6921   40.0296    9.0982 H       1  UNL1        0.1565
     15 C          16.3380   41.9241    8.3503 C.ar    1  UNL1        0.2218
     16 C          15.7986   43.6627    6.8376 C.ar    1  UNL1        0.1034
     17 C          17.0018   44.3041    7.1251 C.ar    1  UNL1        0.0414
     18 C          17.8615   43.7119    8.0479 C.ar    1  UNL1        0.1034
     19 N          15.4896   42.4909    7.4517 N.ar    1  UNL1       -0.2120
     20 N          17.5171   42.5393    8.6411 N.ar    1  UNL1       -0.2120
     21 C           8.3323   40.8839    7.5177 C.3     1  UNL1        0.0768
     22 C           6.9956   41.6075    7.5318 C.3     1  UNL1        0.0437
     23 C           6.3276   41.4442    8.8540 C.ar    1  UNL1       -0.0208
     24 C           4.9739   41.0956    8.9060 C.ar    1  UNL1       -0.0042
     25 C           4.3405   40.9258   10.1410 C.ar    1  UNL1       -0.0003
     26 C           5.0614   41.0999   11.3265 C.ar    1  UNL1       -0.0000
     27 C           6.4163   41.4418   11.2774 C.ar    1  UNL1       -0.0003
     28 C           7.0500   41.6117   10.0428 C.ar    1  UNL1       -0.0042
@<TRIPOS>BOND
     1     1     2    1
     2     2     3    1
     3     3     4    1
     4     3     7    1
     5     4     6    1
     6     5     6    1
     7     5     1    1
     8    21     6    1
     9    21    22    1
    10    22    23    1
    11    24    25   ar
    12    26    27   ar
    13    28    23   ar
    14     8    12   ar
    15     8    13    1
    16     9    10   ar
    17    11     7   ar
    18    15    20   ar
    19    16    19   ar
    20    17    18   ar
    21    13    15    1
    22    23    24   ar
    23    25    26   ar
    24    27    28   ar
    25     7    12   ar
    26     8     9   ar
    27    10    11   ar
    28    15    19   ar
    29    16    17   ar
    30    18    20   ar
    31    13    14    1
@<TRIPOS>MOLECULE
MolPort-020-292-996 MCULE-1986705594 PubChem-110265463
 28 31 0 0 0
SMALL
GASTEIGER

@<TRIPOS>ATOM
      1 C          10.2560   41.1917   11.3130 C.3     1  UNL1        0.0178
      2 C          11.6392   40.5948   11.5149 C.3     1  UNL1        0.0087
      3 C          12.4051   40.6379   10.1990 C.3     1  UNL1        0.0563
      4 C          11.6196   39.9051    9.1034 C.3     1  UNL1        0.0780
      5 C           9.5217   40.4376   10.1996 C.3     1  UNL1        0.0721
      6 N          10.2616   40.4433    8.9293 N.3     1  UNL1       -0.2720
      7 C          13.7758   40.0604   10.3538 C.ar    1  UNL1        0.0614
      8 C          16.0892   40.1626    9.7893 C.ar    1  UNL1        0.1339
      9 C          16.3449   39.0415   10.5905 C.ar    1  UNL1        0.0345
     10 C          15.2958   38.4302   11.2771 C.ar    1  UNL1        0.0041
     11 C          14.0024   38.9379   11.1617 C.ar    1  UNL1        0.0149
     12 N          14.8170   40.6375    9.6946 N.ar    1  UNL1       -0.2348
     13 N          17.1314   40.8285    9.0622 N.pl3   1  UNL1       -0.2680
     14 H          18.0190   40.4033    9.0863 H       1  UNL1        0.1565
     15 C          17.0303   42.0419    8.3043 C.ar    1  UNL1        0.2218
     16 C          15.7315   43.4556    6.9200 C.ar    1  UNL1        0.1034
     17 C          16.7864   44.3619    6.8333 C.ar    1  UNL1        0.0414
     18 C          17.9683   44.0659    7.5092 C.ar    1  UNL1        0.1034
     19 N          15.8712   42.3181    7.6497 N.ar    1  UNL1       -0.2120
     20 N          18.0695   42.9180    8.2287 N.ar    1  UNL1       -0.2120
     21 C          10.3205   41.8011    8.3955 C.3     1  UNL1        0.0768
     22 C           8.9147   42.3533    8.2249 C.3     1  UNL1        0.0437
     23 C           8.0713   41.4025    7.4466 C.ar    1  UNL1       -0.0208
     24 C           8.6384   40.6796    6.3918 C.ar    1  UNL1       -0.0042
     25 C           7.8601   39.7742    5.6640 C.ar    1  UNL1       -0.0003
     26 C           6.5140   39.5869    5.9930 C.ar    1  UNL1       -0.0000
     27 C           5.9462   40.3033    7.0511 C.ar    1  UNL1       -0.0003
     28 C           6.7241   41.2086    7.7791 C.ar    1  UNL1       -0.0042
@<TRIPOS>BOND
     1     1     2    1
     2     2     3    1
     3     3     4    1
     4     3     7    1
     5     4     6    1
     6     5     6    1
     7     5     1    1
     8    21     6    1
     9    21    22    1
    10    22    23    1
    11    24    25   ar
    12    26    27   ar
    13    28    23   ar
    14     8    12   ar
    15     8    13    1
    16     9    10   ar
    17    11     7   ar
    18    15    20   ar
    19    16    19   ar
    20    17    18   ar
    21    13    15    1
    22    23    24   ar
    23    25    26   ar
    24    27    28   ar
    25     7    12   ar
    26     8     9   ar
    27    10    11   ar
    28    15    19   ar
    29    16    17   ar
    30    18    20   ar
    31    13    14    1
@<TRIPOS>MOLECULE
MolPort-020-292-996 MCULE-1986705594 PubChem-110265463
 28 31 0 0 0
SMALL
GASTEIGER

@<TRIPOS>ATOM
      1 C           9.4431   43.7573    9.9196 C.3     1  UNL1        0.0178
      2 C          10.6528   42.9823   10.4158 C.3     1  UNL1        0.0087
      3 C          10.9253   41.8150    9.4760 C.3     1  UNL1        0.0563
      4 C           9.6815   40.9237    9.3623 C.3     1  UNL1        0.0780
      5 C           8.2358   42.8207    9.8072 C.3     1  UNL1        0.0721
      6 N           8.4917   41.6714    8.9270 N.3     1  UNL1       -0.2720
      7 C          12.1119   41.0249    9.9275 C.ar    1  UNL1        0.0614
      8 C          14.3997   40.4437    9.5967 C.ar    1  UNL1        0.1339
      9 C          14.3530   39.5869   10.7047 C.ar    1  UNL1        0.0345
     10 C          13.1662   39.4549   11.4256 C.ar    1  UNL1        0.0041
     11 C          12.0365   40.1751   11.0393 C.ar    1  UNL1        0.0149
     12 N          13.2821   41.1350    9.2417 N.ar    1  UNL1       -0.2348
     13 N          15.5943   40.6159    8.8211 N.pl3   1  UNL1       -0.2680
     14 H          16.1026   39.7976    8.6175 H       1  UNL1        0.1565
     15 C          16.1340   41.8414    8.3078 C.ar    1  UNL1        0.2218
     16 C          15.9563   43.6447    6.7851 C.ar    1  UNL1        0.1034
     17 C          17.1314   44.2011    7.2865 C.ar    1  UNL1        0.0414
     18 C          17.7900   43.5344    8.3175 C.ar    1  UNL1        0.1034
     19 N          15.4810   42.4815    7.3016 N.ar    1  UNL1       -0.2120
     20 N          17.2832   42.3731    8.8076 N.ar    1  UNL1       -0.2120
     21 C           8.6573   42.1281    7.5501 C.3     1  UNL1        0.0768
     22 C          10.0294   41.7287    7.0322 C.3     1  UNL1        0.0437
     23 C           9.9004   40.7839    5.8868 C.ar    1  UNL1       -0.0208
     24 C           8.6822   40.1346    5.6604 C.ar    1  UNL1       -0.0042
     25 C           8.5456   39.2570    4.5805 C.ar    1  UNL1       -0.0003
     26 C           9.6260   39.0308    3.7221 C.ar    1  UNL1       -0.0000
     27 C          10.8429   39.6835    3.9422 C.ar    1  UNL1       -0.0003
     28 C          10.9799   40.5611    5.0219 C.ar    1  UNL1       -0.0042
@<TRIPOS>BOND
     1     1     2    1
     2     2     3    1
     3     3     4    1
     4     3     7    1
     5     4     6    1
     6     5     6    1
     7     5     1    1
     8    21     6    1
     9    21    22    1
    10    22    23    1
    11    24    25   ar
    12    26    27   ar
    13    28    23   ar
    14     8    12   ar
    15     8    13    1
    16     9    10   ar
    17    11     7   ar
    18    15    20   ar
    19    16    19   ar
    20    17    18   ar
    21    13    15    1
    22    23    24   ar
    23    25    26   ar
    24    27    28   ar
    25     7    12   ar
    26     8     9   ar
    27    10    11   ar
    28    15    19   ar
    29    16    17   ar
    30    18    20   ar
    31    13    14    1
@<TRIPOS>MOLECULE
MolPort-020-292-996 MCULE-1986705594 PubChem-110265463
 28 31 0 0 0
SMALL
GASTEIGER

@<TRIPOS>ATOM
      1 C           9.8676   43.5080    9.6443 C.3     1  UNL1        0.0178
      2 C          11.2203   42.8566    9.8809 C.3     1  UNL1        0.0087
      3 C          11.0346   41.3547   10.0537 C.3     1  UNL1        0.0563
      4 C          10.0538   41.0695   11.1987 C.3     1  UNL1        0.0780
      5 C           8.9221   43.1790   10.8043 C.3     1  UNL1        0.0721
      6 N           8.7548   41.7323   11.0048 N.3     1  UNL1       -0.2720
      7 C          12.3448   40.6728   10.2874 C.ar    1  UNL1        0.0614
      8 C          14.6139   40.3696    9.6239 C.ar    1  UNL1        0.1339
      9 C          14.8036   39.4434   10.6584 C.ar    1  UNL1        0.0345
     10 C          13.7441   39.1354   11.5117 C.ar    1  UNL1        0.0041
     11 C          12.5059   39.7501   11.3298 C.ar    1  UNL1        0.0149
     12 N          13.3947   40.9550    9.4690 N.ar    1  UNL1       -0.2348
     13 N          15.6696   40.7218    8.7184 N.pl3   1  UNL1       -0.2680
     14 H          16.2954   40.0008    8.4781 H       1  UNL1        0.1565
     15 C          15.9191   42.0023    8.1227 C.ar    1  UNL1        0.2218
     16 C          17.2846   43.9301    7.9773 C.ar    1  UNL1        0.1034
     17 C          16.4422   44.4697    7.0073 C.ar    1  UNL1        0.0414
     18 C          15.3282   43.7305    6.6151 C.ar    1  UNL1        0.1034
     19 N          17.0099   42.7129    8.5148 N.ar    1  UNL1       -0.2120
     20 N          15.0871   42.5169    7.1760 N.ar    1  UNL1       -0.2120
     21 C           8.0559   41.1506    9.8624 C.3     1  UNL1        0.0768
     22 C           8.1196   42.0995    8.6767 C.3     1  UNL1        0.0437
     23 C           8.4587   41.3557    7.4305 C.ar    1  UNL1       -0.0208
     24 C           9.6317   41.6694    6.7359 C.ar    1  UNL1       -0.0042
     25 C           9.9669   40.9684    5.5734 C.ar    1  UNL1       -0.0003
     26 C           9.1317   39.9489    5.1061 C.ar    1  UNL1       -0.0000
     27 C           7.9620   39.6287    5.8021 C.ar    1  UNL1       -0.0003
     28 C           7.6264   40.3294    6.9645 C.ar    1  UNL1       -0.0042
@<TRIPOS>BOND
     1     1     2    1
     2     2     3    1
     3     3     4    1
     4     3     7    1
     5     4     6    1
     6     5     6    1
     7     5     1    1
     8    21     6    1
     9    21    22    1
    10    22    23    1
    11    24    25   ar
    12    26    27   ar
    13    28    23   ar
    14     8    12   ar
    15     8    13    1
    16     9    10   ar
    17    11     7   ar
    18    15    20   ar
    19    16    19   ar
    20    17    18   ar
    21    13    15    1
    22    23    24   ar
    23    25    26   ar
    24    27    28   ar
    25     7    12   ar
    26     8     9   ar
    27    10    11   ar
    28    15    19   ar
    29    16    17   ar
    30    18    20   ar
    31    13    14    1
@<TRIPOS>MOLECULE
MolPort-020-292-996 MCULE-1986705594 PubChem-110265463
 28 31 0 0 0
SMALL
GASTEIGER

@<TRIPOS>ATOM
      1 C           9.2304   41.7727    5.8943 C.3     1  UNL1        0.0178
      2 C           8.7939   41.6778    7.3471 C.3     1  UNL1        0.0087
      3 C          10.0251   41.6101    8.2413 C.3     1  UNL1        0.0563
      4 C          10.9138   40.4281    7.8322 C.3     1  UNL1        0.0780
      5 C          10.1274   40.5814    5.5421 C.3     1  UNL1        0.0721
      6 N          11.3059   40.4832    6.4153 N.3     1  UNL1       -0.2720
      7 C           9.6398   41.5177    9.6832 C.ar    1  UNL1        0.0614
      8 C           7.9538   41.7812   11.3472 C.ar    1  UNL1        0.1339
      9 C           8.8552   41.3737   12.3400 C.ar    1  UNL1        0.0345
     10 C          10.1624   41.0365   11.9889 C.ar    1  UNL1        0.0041
     11 C          10.5624   41.1073   10.6551 C.ar    1  UNL1        0.0149
     12 N           8.3708   41.8413   10.0528 N.ar    1  UNL1       -0.2348
     13 N           6.5988   42.1391   11.6541 N.pl3   1  UNL1       -0.2680
     14 H           6.4624   42.6608   12.4778 H       1  UNL1        0.1565
     15 C           5.4199   41.8250   10.9002 C.ar    1  UNL1        0.2218
     16 C           3.6372   40.3287   10.4701 C.ar    1  UNL1        0.1034
     17 C           3.1481   41.1758    9.4776 C.ar    1  UNL1        0.0414
     18 C           3.8366   42.3599    9.2222 C.ar    1  UNL1        0.1034
     19 N           4.7580   40.6662   11.1599 N.ar    1  UNL1       -0.2120
     20 N           4.9538   42.6625    9.9334 N.ar    1  UNL1       -0.2120
     21 C          12.1937   41.6182    6.1802 C.3     1  UNL1        0.0768
     22 C          13.3480   41.5879    7.1686 C.3     1  UNL1        0.0437
     23 C          14.3383   42.6544    6.8476 C.ar    1  UNL1       -0.0208
     24 C          13.9805   43.6911    5.9793 C.ar    1  UNL1       -0.0042
     25 C          14.8967   44.7046    5.6822 C.ar    1  UNL1       -0.0003
     26 C          16.1713   44.6857    6.2570 C.ar    1  UNL1       -0.0000
     27 C          16.5295   43.6542    7.1305 C.ar    1  UNL1       -0.0003
     28 C          15.6136   42.6405    7.4278 C.ar    1  UNL1       -0.0042
@<TRIPOS>BOND
     1     1     2    1
     2     2     3    1
     3     3     4    1
     4     3     7    1
     5     4     6    1
     6     5     6    1
     7     5     1    1
     8    21     6    1
     9    21    22    1
    10    22    23    1
    11    24    25   ar
    12    26    27   ar
    13    28    23   ar
    14     8    12   ar
    15     8    13    1
    16     9    10   ar
    17    11     7   ar
    18    15    20   ar
    19    16    19   ar
    20    17    18   ar
    21    13    15    1
    22    23    24   ar
    23    25    26   ar
    24    27    28   ar
    25     7    12   ar
    26     8     9   ar
    27    10    11   ar
    28    15    19   ar
    29    16    17   ar
    30    18    20   ar
    31    13    14    1
