@<TRIPOS>MOLECULE
MolPort-002-786-865 9777945 CSC046478744 CSSS00046478744 LN01162733 MCULE-7710624974 PubChem-17095034 ZINC000009777945 ZINC09777945
 18 19 0 0 0
SMALL
GASTEIGER

@<TRIPOS>ATOM
      1 C          12.5344   40.1483    8.0488 C.ar    1  UNL1        0.1398
      2 C          11.5041   40.3026    7.1078 C.ar    1  UNL1        0.0370
      3 C          11.5956   41.2858    6.1200 C.ar    1  UNL1        0.0044
      4 C          12.7157   42.1190    6.0669 C.ar    1  UNL1        0.0149
      5 C          13.7526   41.9742    7.0008 C.ar    1  UNL1        0.0533
      6 C          13.6520   40.9873    7.9875 C.ar    1  UNL1        0.0515
      7 C          15.1350   43.9577    6.1442 C.2     1  UNL1        0.2256
      8 O          14.2858   44.3016    5.2781 O.2     1  UNL1       -0.2748
      9 N          14.9160   42.8122    6.9801 N.am    1  UNL1       -0.2838
     10 H          15.6400   42.5770    7.6044 H       1  UNL1        0.1549
     11 C          16.4127   44.7227    6.2654 C.3     1  UNL1        0.0768
     12 C          17.5715   43.8781    5.7672 C.3     1  UNL1        0.0096
     13 C          17.3376   44.0332    7.2523 C.3     1  UNL1        0.0096
     14 O          12.4740   39.1744    9.0489 O.3     1  UNL1       -0.4754
     15 C          12.0134   39.4517   10.3659 C.3     1  UNL1        0.2054
     16 C          13.1920   39.6229   11.3114 C.3     1  UNL1        0.0473
     17 C          15.4044   38.5871   11.8280 C.3     1  UNL1        0.0001
     18 C          13.9513   38.3176   11.4863 C.3     1  UNL1        0.0038
@<TRIPOS>BOND
     1    17    18    1
     2    18    16    1
     3    16    15    1
     4    15    14    1
     5     1    14    1
     6     2     3   ar
     7     4     5   ar
     8     5     9    1
     9    11     7    1
    10    11    12    1
    11    12    13    1
    12    13    11    1
    13     6     1   ar
    14     9     7   am
    15     1     2   ar
    16     3     4   ar
    17     5     6   ar
    18     7     8    2
    19     9    10    1
@<TRIPOS>MOLECULE
MolPort-002-786-865 9777945 CSC046478744 CSSS00046478744 LN01162733 MCULE-7710624974 PubChem-17095034 ZINC000009777945 ZINC09777945
 18 19 0 0 0
SMALL
GASTEIGER

@<TRIPOS>ATOM
      1 C          10.7118   41.6024    8.0960 C.ar    1  UNL1        0.1398
      2 C          10.3262   41.0810    6.8509 C.ar    1  UNL1        0.0370
      3 C          11.1888   41.1655    5.7557 C.ar    1  UNL1        0.0044
      4 C          12.4399   41.7706    5.8983 C.ar    1  UNL1        0.0149
      5 C          12.8375   42.2945    7.1375 C.ar    1  UNL1        0.0533
      6 C          11.9665   42.2063    8.2290 C.ar    1  UNL1        0.0515
      7 C          14.7033   43.9288    6.4838 C.2     1  UNL1        0.2256
      8 O          14.1288   44.3166    5.4308 O.2     1  UNL1       -0.2748
      9 N          14.1120   42.9252    7.3218 N.am    1  UNL1       -0.2838
     10 H          14.6360   42.6399    8.1050 H       1  UNL1        0.1549
     11 C          16.0451   44.4836    6.8363 C.3     1  UNL1        0.0768
     12 C          17.0804   44.0143    5.8302 C.3     1  UNL1        0.0096
     13 C          16.9969   43.3540    7.1872 C.3     1  UNL1        0.0096
     14 O           9.8729   41.5333    9.2113 O.3     1  UNL1       -0.4754
     15 C           8.4610   41.3968    9.1046 C.3     1  UNL1        0.2054
     16 C           7.7902   41.8305   10.3987 C.3     1  UNL1        0.0473
     17 C           8.6270   41.1162   12.6400 C.3     1  UNL1        0.0001
     18 C           8.8159   42.0879   11.4907 C.3     1  UNL1        0.0038
@<TRIPOS>BOND
     1    17    18    1
     2    18    16    1
     3    16    15    1
     4    15    14    1
     5     1    14    1
     6     2     3   ar
     7     4     5   ar
     8     5     9    1
     9    11     7    1
    10    11    12    1
    11    12    13    1
    12    13    11    1
    13     6     1   ar
    14     9     7   am
    15     1     2   ar
    16     3     4   ar
    17     5     6   ar
    18     7     8    2
    19     9    10    1
@<TRIPOS>MOLECULE
MolPort-002-786-865 9777945 CSC046478744 CSSS00046478744 LN01162733 MCULE-7710624974 PubChem-17095034 ZINC000009777945 ZINC09777945
 18 19 0 0 0
SMALL
GASTEIGER

@<TRIPOS>ATOM
      1 C          13.1550   41.1587    8.7011 C.ar    1  UNL1        0.1398
      2 C          12.2236   40.8027    9.6892 C.ar    1  UNL1        0.0370
      3 C          12.6080   39.9887   10.7572 C.ar    1  UNL1        0.0044
      4 C          13.9236   39.5268   10.8437 C.ar    1  UNL1        0.0149
      5 C          14.8643   39.8764    9.8632 C.ar    1  UNL1        0.0533
      6 C          14.4700   40.6914    8.7964 C.ar    1  UNL1        0.0515
      7 C          16.8993   38.8673   11.0548 C.2     1  UNL1        0.2256
      8 O          16.3258   38.7852   12.1745 O.2     1  UNL1       -0.2748
      9 N          16.2224   39.4195    9.9164 N.am    1  UNL1       -0.2838
     10 H          16.7449   39.4922    9.0852 H       1  UNL1        0.1549
     11 C          18.3228   38.4328   10.9242 C.3     1  UNL1        0.0768
     12 C          18.4818   37.5377    9.7085 C.3     1  UNL1        0.0096
     13 C          18.4220   36.9269   11.0897 C.3     1  UNL1        0.0096
     14 O          12.8029   41.9717    7.6206 O.3     1  UNL1       -0.4754
     15 C          13.6740   42.2106    6.5217 C.3     1  UNL1        0.2054
     16 C          13.7109   43.6946    6.1913 C.3     1  UNL1        0.0473
     17 C          16.0104   44.6656    6.1338 C.3     1  UNL1        0.0001
     18 C          14.9038   44.0330    5.3117 C.3     1  UNL1        0.0038
@<TRIPOS>BOND
     1    17    18    1
     2    18    16    1
     3    16    15    1
     4    15    14    1
     5     1    14    1
     6     2     3   ar
     7     4     5   ar
     8     5     9    1
     9    11     7    1
    10    11    12    1
    11    12    13    1
    12    13    11    1
    13     6     1   ar
    14     9     7   am
    15     1     2   ar
    16     3     4   ar
    17     5     6   ar
    18     7     8    2
    19     9    10    1
@<TRIPOS>MOLECULE
MolPort-002-786-865 9777945 CSC046478744 CSSS00046478744 LN01162733 MCULE-7710624974 PubChem-17095034 ZINC000009777945 ZINC09777945
 18 19 0 0 0
SMALL
GASTEIGER

@<TRIPOS>ATOM
      1 C          14.0092   41.6758    7.8222 C.ar    1  UNL1        0.1398
      2 C          14.7071   40.8432    8.7113 C.ar    1  UNL1        0.0370
      3 C          14.0478   40.2679    9.8000 C.ar    1  UNL1        0.0044
      4 C          12.6895   40.5210   10.0060 C.ar    1  UNL1        0.0149
      5 C          11.9806   41.3503    9.1240 C.ar    1  UNL1        0.0533
      6 C          12.6492   41.9231    8.0366 C.ar    1  UNL1        0.0515
      7 C          10.0198   42.8239    9.8747 C.2     1  UNL1        0.2256
      8 O          10.7557   43.7395   10.3325 O.2     1  UNL1       -0.2748
      9 N          10.5869   41.6356    9.3043 N.am    1  UNL1       -0.2838
     10 H           9.9530   40.9441    9.0055 H       1  UNL1        0.1549
     11 C           8.5349   42.9543    9.9761 C.3     1  UNL1        0.0768
     12 C           8.0052   42.0227   11.0513 C.3     1  UNL1        0.0096
     13 C           7.8724   41.6426    9.5945 C.3     1  UNL1        0.0096
     14 O          14.6388   42.2660    6.7233 O.3     1  UNL1       -0.4754
     15 C          14.0358   43.3004    5.9552 C.3     1  UNL1        0.2054
     16 C          14.9911   44.4747    5.8103 C.3     1  UNL1        0.0473
     17 C          17.4295   43.9411    5.7518 C.3     1  UNL1        0.0001
     18 C          16.2464   44.2688    6.6426 C.3     1  UNL1        0.0038
@<TRIPOS>BOND
     1    17    18    1
     2    18    16    1
     3    16    15    1
     4    15    14    1
     5     1    14    1
     6     2     3   ar
     7     4     5   ar
     8     5     9    1
     9    11     7    1
    10    11    12    1
    11    12    13    1
    12    13    11    1
    13     6     1   ar
    14     9     7   am
    15     1     2   ar
    16     3     4   ar
    17     5     6   ar
    18     7     8    2
    19     9    10    1
@<TRIPOS>MOLECULE
MolPort-002-786-865 9777945 CSC046478744 CSSS00046478744 LN01162733 MCULE-7710624974 PubChem-17095034 ZINC000009777945 ZINC09777945
 18 19 0 0 0
SMALL
GASTEIGER

@<TRIPOS>ATOM
      1 C          13.9111   41.5834    7.4442 C.ar    1  UNL1        0.1398
      2 C          14.5704   41.1122    8.5905 C.ar    1  UNL1        0.0370
      3 C          13.9045   40.2785    9.4918 C.ar    1  UNL1        0.0044
      4 C          12.5779   39.9114    9.2529 C.ar    1  UNL1        0.0149
      5 C          11.9082   40.3746    8.1105 C.ar    1  UNL1        0.0533
      6 C          12.5828   41.2102    7.2136 C.ar    1  UNL1        0.0515
      7 C           9.3872   40.8422    8.0394 C.2     1  UNL1        0.2256
      8 O           9.4856   41.9866    8.5591 O.2     1  UNL1       -0.2748
      9 N          10.5463   40.0219    7.8330 N.am    1  UNL1       -0.2838
     10 H          10.3903   39.1234    7.4622 H       1  UNL1        0.1549
     11 C           8.0373   40.3103    7.6825 C.3     1  UNL1        0.0768
     12 C           8.1661   39.2551    6.5988 C.3     1  UNL1        0.0096
     13 C           7.7113   40.6510    6.2394 C.3     1  UNL1        0.0096
     14 O          14.5488   42.4180    6.5227 O.3     1  UNL1       -0.4754
     15 C          13.9718   43.6318    6.0565 C.3     1  UNL1        0.2054
     16 C          15.0605   44.6448    5.7384 C.3     1  UNL1        0.0473
     17 C          17.4489   43.9214    5.8195 C.3     1  UNL1        0.0001
     18 C          16.2766   44.4433    6.6282 C.3     1  UNL1        0.0038
@<TRIPOS>BOND
     1    17    18    1
     2    18    16    1
     3    16    15    1
     4    15    14    1
     5     1    14    1
     6     2     3   ar
     7     4     5   ar
     8     5     9    1
     9    11     7    1
    10    11    12    1
    11    12    13    1
    12    13    11    1
    13     6     1   ar
    14     9     7   am
    15     1     2   ar
    16     3     4   ar
    17     5     6   ar
    18     7     8    2
    19     9    10    1
@<TRIPOS>MOLECULE
MolPort-002-786-865 9777945 CSC046478744 CSSS00046478744 LN01162733 MCULE-7710624974 PubChem-17095034 ZINC000009777945 ZINC09777945
 18 19 0 0 0
SMALL
GASTEIGER

@<TRIPOS>ATOM
      1 C          15.5138   41.6618    8.2547 C.ar    1  UNL1        0.1398
      2 C          16.3785   42.6882    7.8430 C.ar    1  UNL1        0.0370
      3 C          16.0035   43.5518    6.8113 C.ar    1  UNL1        0.0044
      4 C          14.7641   43.3948    6.1862 C.ar    1  UNL1        0.0149
      5 C          13.8905   42.3737    6.5891 C.ar    1  UNL1        0.0533
      6 C          14.2748   41.5126    7.6228 C.ar    1  UNL1        0.0515
      7 C          11.7247   41.0679    6.1602 C.2     1  UNL1        0.2256
      8 O          12.0494   40.0965    6.8954 O.2     1  UNL1       -0.2748
      9 N          12.6119   42.1795    5.9697 N.am    1  UNL1       -0.2838
     10 H          12.3114   42.8821    5.3489 H       1  UNL1        0.1549
     11 C          10.4194   41.0363    5.4340 C.3     1  UNL1        0.0768
     12 C           9.8709   39.6209    5.4155 C.3     1  UNL1        0.0096
     13 C          10.5425   40.1836    4.1839 C.3     1  UNL1        0.0096
     14 O          15.8584   40.7817    9.2838 O.3     1  UNL1       -0.4754
     15 C          15.1518   39.5719    9.5302 C.3     1  UNL1        0.2054
     16 C          15.3023   39.1608   10.9866 C.3     1  UNL1        0.0473
     17 C          12.9013   39.8371   10.8762 C.3     1  UNL1        0.0001
     18 C          13.9525   39.0991   11.6832 C.3     1  UNL1        0.0038
@<TRIPOS>BOND
     1    17    18    1
     2    18    16    1
     3    16    15    1
     4    15    14    1
     5     1    14    1
     6     2     3   ar
     7     4     5   ar
     8     5     9    1
     9    11     7    1
    10    11    12    1
    11    12    13    1
    12    13    11    1
    13     6     1   ar
    14     9     7   am
    15     1     2   ar
    16     3     4   ar
    17     5     6   ar
    18     7     8    2
    19     9    10    1
@<TRIPOS>MOLECULE
MolPort-002-786-865 9777945 CSC046478744 CSSS00046478744 LN01162733 MCULE-7710624974 PubChem-17095034 ZINC000009777945 ZINC09777945
 18 19 0 0 0
SMALL
GASTEIGER

@<TRIPOS>ATOM
      1 C          12.3740   39.9193    8.4962 C.ar    1  UNL1        0.1398
      2 C          12.1064   39.0465    9.5626 C.ar    1  UNL1        0.0370
      3 C          13.1140   38.7189   10.4728 C.ar    1  UNL1        0.0044
      4 C          14.3927   39.2611   10.3227 C.ar    1  UNL1        0.0149
      5 C          14.6726   40.1355    9.2619 C.ar    1  UNL1        0.0533
      6 C          13.6575   40.4573    8.3543 C.ar    1  UNL1        0.0515
      7 C          16.2838   41.9215    8.3711 C.2     1  UNL1        0.2256
      8 O          15.3827   42.5847    7.7901 O.2     1  UNL1       -0.2748
      9 N          15.9731   40.7095    9.0735 N.am    1  UNL1       -0.2838
     10 H          16.7318   40.2210    9.4671 H       1  UNL1        0.1549
     11 C          17.7044   42.3758    8.2818 C.3     1  UNL1        0.0768
     12 C          17.7885   43.8686    8.5440 C.3     1  UNL1        0.0096
     13 C          17.8657   43.3481    7.1271 C.3     1  UNL1        0.0096
     14 O          11.3885   40.2677    7.5690 O.3     1  UNL1       -0.4754
     15 C          10.0999   39.6653    7.5531 C.3     1  UNL1        0.2054
     16 C           9.7596   39.1856    6.1507 C.3     1  UNL1        0.0473
     17 C          10.9447   38.6818    4.0115 C.3     1  UNL1        0.0001
     18 C          10.7759   39.6852    5.1365 C.3     1  UNL1        0.0038
@<TRIPOS>BOND
     1    17    18    1
     2    18    16    1
     3    16    15    1
     4    15    14    1
     5     1    14    1
     6     2     3   ar
     7     4     5   ar
     8     5     9    1
     9    11     7    1
    10    11    12    1
    11    12    13    1
    12    13    11    1
    13     6     1   ar
    14     9     7   am
    15     1     2   ar
    16     3     4   ar
    17     5     6   ar
    18     7     8    2
    19     9    10    1
@<TRIPOS>MOLECULE
MolPort-002-786-865 9777945 CSC046478744 CSSS00046478744 LN01162733 MCULE-7710624974 PubChem-17095034 ZINC000009777945 ZINC09777945
 18 19 0 0 0
SMALL
GASTEIGER

@<TRIPOS>ATOM
      1 C          14.4553   40.5067    9.3162 C.ar    1  UNL1        0.1398
      2 C          14.5145   39.7624   10.5049 C.ar    1  UNL1        0.0370
      3 C          13.3533   39.5237   11.2435 C.ar    1  UNL1        0.0044
      4 C          12.1282   40.0267   10.7989 C.ar    1  UNL1        0.0149
      5 C          12.0555   40.7710    9.6120 C.ar    1  UNL1        0.0533
      6 C          13.2239   41.0061    8.8790 C.ar    1  UNL1        0.0515
      7 C           9.6854   41.7048    9.9121 C.2     1  UNL1        0.2256
      8 O           9.6806   41.5579   11.1642 O.2     1  UNL1       -0.2748
      9 N          10.8172   41.3058    9.1254 N.am    1  UNL1       -0.2838
     10 H          10.7349   41.4101    8.1499 H       1  UNL1        0.1549
     11 C           8.4735   42.2530    9.2314 C.3     1  UNL1        0.0768
     12 C           7.2208   41.7979    9.9580 C.3     1  UNL1        0.0096
     13 C           7.6345   41.1173    8.6735 C.3     1  UNL1        0.0096
     14 O          15.5979   40.7627    8.5538 O.3     1  UNL1       -0.4754
     15 C          15.9734   42.0729    8.1466 C.3     1  UNL1        0.2054
     16 C          17.3494   42.4208    8.6928 C.3     1  UNL1        0.0473
     17 C          17.4939   43.8669    6.6626 C.3     1  UNL1        0.0001
     18 C          17.8451   43.7444    8.1331 C.3     1  UNL1        0.0038
@<TRIPOS>BOND
     1    17    18    1
     2    18    16    1
     3    16    15    1
     4    15    14    1
     5     1    14    1
     6     2     3   ar
     7     4     5   ar
     8     5     9    1
     9    11     7    1
    10    11    12    1
    11    12    13    1
    12    13    11    1
    13     6     1   ar
    14     9     7   am
    15     1     2   ar
    16     3     4   ar
    17     5     6   ar
    18     7     8    2
    19     9    10    1
@<TRIPOS>MOLECULE
MolPort-002-786-865 9777945 CSC046478744 CSSS00046478744 LN01162733 MCULE-7710624974 PubChem-17095034 ZINC000009777945 ZINC09777945
 18 19 0 0 0
SMALL
GASTEIGER

@<TRIPOS>ATOM
      1 C          12.5784   40.2857   10.1758 C.ar    1  UNL1        0.1398
      2 C          13.5242   39.5520   10.9091 C.ar    1  UNL1        0.0370
      3 C          14.8656   39.5473   10.5201 C.ar    1  UNL1        0.0044
      4 C          15.2689   40.2749    9.3978 C.ar    1  UNL1        0.0149
      5 C          14.3336   41.0131    8.6571 C.ar    1  UNL1        0.0533
      6 C          12.9918   41.0112    9.0535 C.ar    1  UNL1        0.0515
      7 C          13.9177   42.7590    6.8246 C.2     1  UNL1        0.2256
      8 O          12.7412   43.0146    7.1987 O.2     1  UNL1       -0.2748
      9 N          14.7090   41.7695    7.4982 N.am    1  UNL1       -0.2838
     10 H          15.6028   41.5913    7.1258 H       1  UNL1        0.1549
     11 C          14.4773   43.4584    5.6288 C.3     1  UNL1        0.0768
     12 C          15.9148   43.8681    5.8938 C.3     1  UNL1        0.0096
     13 C          14.8112   44.8973    5.9795 C.3     1  UNL1        0.0096
     14 O          11.2292   40.3118   10.5386 O.3     1  UNL1       -0.4754
     15 C          10.5639   41.5028   10.9412 C.3     1  UNL1        0.2054
     16 C           9.1595   41.5446   10.3593 C.3     1  UNL1        0.0473
     17 C           8.6355   41.1953   12.7754 C.3     1  UNL1        0.0001
     18 C           8.1166   41.7221   11.4510 C.3     1  UNL1        0.0038
@<TRIPOS>BOND
     1    17    18    1
     2    18    16    1
     3    16    15    1
     4    15    14    1
     5     1    14    1
     6     2     3   ar
     7     4     5   ar
     8     5     9    1
     9    11     7    1
    10    11    12    1
    11    12    13    1
    12    13    11    1
    13     6     1   ar
    14     9     7   am
    15     1     2   ar
    16     3     4   ar
    17     5     6   ar
    18     7     8    2
    19     9    10    1
@<TRIPOS>MOLECULE
MolPort-002-786-865 9777945 CSC046478744 CSSS00046478744 LN01162733 MCULE-7710624974 PubChem-17095034 ZINC000009777945 ZINC09777945
 18 19 0 0 0
SMALL
GASTEIGER

@<TRIPOS>ATOM
      1 C          11.0825   41.7426    8.2400 C.ar    1  UNL1        0.1398
      2 C          10.7358   41.0214    7.0866 C.ar    1  UNL1        0.0370
      3 C          11.4999   41.1449    5.9239 C.ar    1  UNL1        0.0044
      4 C          12.6133   41.9885    5.9075 C.ar    1  UNL1        0.0149
      5 C          12.9710   42.7138    7.0539 C.ar    1  UNL1        0.0533
      6 C          12.1992   42.5847    8.2138 C.ar    1  UNL1        0.0515
      7 C          15.4605   43.2367    7.3829 C.2     1  UNL1        0.2256
      8 O          15.7620   42.0623    7.7280 O.2     1  UNL1       -0.2748
      9 N          14.1047   43.5915    7.0745 N.am    1  UNL1       -0.2838
     10 H          13.9353   44.5359    6.8540 H       1  UNL1        0.1549
     11 C          16.5218   44.2877    7.3463 C.3     1  UNL1        0.0768
     12 C          17.7351   43.7729    6.5931 C.3     1  UNL1        0.0096
     13 C          17.7484   43.8119    8.1039 C.3     1  UNL1        0.0096
     14 O          10.3397   41.6410    9.4191 O.3     1  UNL1       -0.4754
     15 C          10.9419   41.4509   10.6937 C.3     1  UNL1        0.2054
     16 C          11.4002   40.0094   10.8505 C.3     1  UNL1        0.0473
     17 C          13.4577   39.3565    9.5957 C.3     1  UNL1        0.0001
     18 C          12.9168   39.9162   10.8976 C.3     1  UNL1        0.0038
@<TRIPOS>BOND
     1    17    18    1
     2    18    16    1
     3    16    15    1
     4    15    14    1
     5     1    14    1
     6     2     3   ar
     7     4     5   ar
     8     5     9    1
     9    11     7    1
    10    11    12    1
    11    12    13    1
    12    13    11    1
    13     6     1   ar
    14     9     7   am
    15     1     2   ar
    16     3     4   ar
    17     5     6   ar
    18     7     8    2
    19     9    10    1
