@<TRIPOS>MOLECULE
MolPort-020-279-174 MCULE-1711178122 PubChem-110255928
 28 31 0 0 0
SMALL
GASTEIGER

@<TRIPOS>ATOM
      1 C          16.2755   42.1566    8.0525 C.ar    1  UNL1        0.1533
      2 C          14.0766   42.6051    7.2753 C.ar    1  UNL1        0.0808
      3 C          14.5324   43.7806    6.6656 C.ar    1  UNL1        0.1137
      4 C          16.7236   43.3338    7.4395 C.ar    1  UNL1        0.1332
      5 N          14.9605   41.8253    7.9525 N.ar    1  UNL1       -0.2316
      6 N          15.8447   44.1172    6.7618 N.ar    1  UNL1       -0.2382
      7 C          12.6412   42.1937    7.1989 C.3     1  UNL1        0.0617
      8 C          11.9320   42.4119    8.5379 C.3     1  UNL1        0.0094
      9 C          10.4640   42.0037    8.4353 C.3     1  UNL1        0.0219
     10 C          10.3577   40.5435    8.0064 C.3     1  UNL1        0.0922
     11 C          12.5116   40.7382    6.7477 C.3     1  UNL1        0.0981
     12 N          11.1041   40.3452    6.7668 N.pl3   1  UNL1       -0.2916
     13 C          10.4602   39.8051    5.6014 C.ar    1  UNL1        0.1511
     14 C          10.6210   38.8529    3.4320 C.ar    1  UNL1        0.1210
     15 C           9.2305   38.7653    3.3634 C.ar    1  UNL1        0.1196
     16 C           9.0632   39.7141    5.5261 C.ar    1  UNL1        0.1331
     17 N          11.2035   39.3692    4.5461 N.ar    1  UNL1       -0.2259
     18 N           8.4819   39.1977    4.4116 N.ar    1  UNL1       -0.2378
     19 N          17.1580   41.2915    8.7810 N.pl3   1  UNL1       -0.2667
     20 H          18.1216   41.4650    8.6782 H       1  UNL1        0.1565
     21 C          18.4409   37.1469   10.9938 C.3     1  UNL1        0.0522
     22 C          17.4174   38.1886   10.7186 C.ar    1  UNL1        0.0634
     23 C          16.1510   38.0896   11.2914 C.ar    1  UNL1        0.0296
     24 C          15.2190   39.0862   11.0092 C.ar    1  UNL1        0.0634
     25 C          16.7973   40.2029    9.6419 C.ar    1  UNL1        0.2211
     26 C          13.8569   39.0192   11.5992 C.3     1  UNL1        0.0522
     27 N          15.5559   40.1194   10.1943 N.ar    1  UNL1       -0.2179
     28 N          17.7166   39.2375    9.9087 N.ar    1  UNL1       -0.2179
@<TRIPOS>BOND
     1    21    22    1
     2    22    28   ar
     3    23    24   ar
     4    25    27   ar
     5    25    19    1
     6     2     5   ar
     7     3     6   ar
     8     4     1   ar
     9     7     2    1
    10     7     8    1
    11     8     9    1
    12     9    10    1
    13    10    12    1
    14    11    12    1
    15    11     7    1
    16    14    17   ar
    17    15    18   ar
    18    16    13   ar
    19    26    24    1
    20    19     1    1
    21    12    13    1
    22    22    23   ar
    23    24    27   ar
    24    25    28   ar
    25     1     5   ar
    26     2     3   ar
    27     4     6   ar
    28    13    17   ar
    29    14    15   ar
    30    16    18   ar
    31    19    20    1
@<TRIPOS>MOLECULE
MolPort-020-279-174 MCULE-1711178122 PubChem-110255928
 28 31 0 0 0
SMALL
GASTEIGER

@<TRIPOS>ATOM
      1 C           8.5289   39.6574    5.5736 C.ar    1  UNL1        0.1533
      2 C          10.8852   39.9533    5.5949 C.ar    1  UNL1        0.0808
      3 C          10.9515   39.5170    4.2658 C.ar    1  UNL1        0.1137
      4 C           8.6036   39.2225    4.2441 C.ar    1  UNL1        0.1332
      5 N           9.6758   40.0113    6.2128 N.ar    1  UNL1       -0.2316
      6 N           9.8096   39.1621    3.6217 N.ar    1  UNL1       -0.2382
      7 C          12.1147   40.3526    6.3462 C.3     1  UNL1        0.0617
      8 C          12.1771   39.6611    7.7105 C.3     1  UNL1        0.0094
      9 C          13.4475   40.0664    8.4549 C.3     1  UNL1        0.0219
     10 C          13.4927   41.5823    8.6218 C.3     1  UNL1        0.0922
     11 C          12.1912   41.8717    6.5044 C.3     1  UNL1        0.0981
     12 N          13.3566   42.2197    7.3148 N.pl3   1  UNL1       -0.2916
     13 C          14.3543   43.1374    6.8389 C.ar    1  UNL1        0.1511
     14 C          16.5571   44.0143    6.9730 C.ar    1  UNL1        0.1210
     15 C          16.2742   44.8944    5.9282 C.ar    1  UNL1        0.1196
     16 C          14.0767   44.0244    5.7893 C.ar    1  UNL1        0.1331
     17 N          15.5939   43.1578    7.4039 N.ar    1  UNL1       -0.2259
     18 N          15.0405   44.8804    5.3592 N.ar    1  UNL1       -0.2378
     19 N           7.2835   39.7410    6.2808 N.pl3   1  UNL1       -0.2667
     20 H           6.5227   39.2601    5.8819 H       1  UNL1        0.1565
     21 C           4.0205   41.6365    9.3596 C.3     1  UNL1        0.0522
     22 C           5.4370   41.3671    9.0003 C.ar    1  UNL1        0.0634
     23 C           6.4626   41.7951    9.8410 C.ar    1  UNL1        0.0296
     24 C           7.7777   41.5233    9.4693 C.ar    1  UNL1        0.0634
     25 C           7.0200   40.4447    7.5021 C.ar    1  UNL1        0.2211
     26 C           8.9014   41.9621   10.3369 C.3     1  UNL1        0.0522
     27 N           8.0324   40.8570    8.3134 N.ar    1  UNL1       -0.2179
     28 N           5.7320   40.7031    7.8523 N.ar    1  UNL1       -0.2179
@<TRIPOS>BOND
     1    21    22    1
     2    22    28   ar
     3    23    24   ar
     4    25    27   ar
     5    25    19    1
     6     2     5   ar
     7     3     6   ar
     8     4     1   ar
     9     7     2    1
    10     7     8    1
    11     8     9    1
    12     9    10    1
    13    10    12    1
    14    11    12    1
    15    11     7    1
    16    14    17   ar
    17    15    18   ar
    18    16    13   ar
    19    26    24    1
    20    19     1    1
    21    12    13    1
    22    22    23   ar
    23    24    27   ar
    24    25    28   ar
    25     1     5   ar
    26     2     3   ar
    27     4     6   ar
    28    13    17   ar
    29    14    15   ar
    30    16    18   ar
    31    19    20    1
@<TRIPOS>MOLECULE
MolPort-020-279-174 MCULE-1711178122 PubChem-110255928
 28 31 0 0 0
SMALL
GASTEIGER

@<TRIPOS>ATOM
      1 C          11.6457   41.7432    6.1501 C.ar    1  UNL1        0.1533
      2 C           9.6517   41.6098    7.4333 C.ar    1  UNL1        0.0808
      3 C           9.1654   40.6172    6.5734 C.ar    1  UNL1        0.1137
      4 C          11.1522   40.7496    5.2948 C.ar    1  UNL1        0.1332
      5 N          10.8785   42.1462    7.1981 N.ar    1  UNL1       -0.2316
      6 N           9.9267   40.2104    5.5248 N.ar    1  UNL1       -0.2382
      7 C           8.8498   42.0918    8.5995 C.3     1  UNL1        0.0617
      8 C           9.7573   42.5017    9.7622 C.3     1  UNL1        0.0094
      9 C           8.9222   43.0081   10.9362 C.3     1  UNL1        0.0219
     10 C           7.9394   41.9291   11.3806 C.3     1  UNL1        0.0922
     11 C           7.8413   41.0327    9.0464 C.3     1  UNL1        0.0981
     12 N           7.1365   41.5021   10.2376 N.pl3   1  UNL1       -0.2916
     13 C           5.7021   41.5698   10.2828 C.ar    1  UNL1        0.1511
     14 C           3.7074   41.8823   11.5330 C.ar    1  UNL1        0.1210
     15 C           2.9497   41.7035   10.3754 C.ar    1  UNL1        0.1196
     16 C           4.9346   41.3911    9.1233 C.ar    1  UNL1        0.1331
     17 N           5.0628   41.8118   11.4613 N.ar    1  UNL1       -0.2259
     18 N           3.5795   41.4618    9.1960 N.ar    1  UNL1       -0.2378
     19 N          12.9319   42.3482    5.9558 N.pl3   1  UNL1       -0.2667
     20 H          13.0326   42.9100    5.1536 H       1  UNL1        0.1565
     21 C          15.1834   40.0589    9.6177 C.3     1  UNL1        0.0522
     22 C          15.1845   41.1180    8.5754 C.ar    1  UNL1        0.0634
     23 C          16.2875   41.9583    8.4370 C.ar    1  UNL1        0.0296
     24 C          16.2503   42.9390    7.4480 C.ar    1  UNL1        0.0634
     25 C          14.0876   42.2283    6.7962 C.ar    1  UNL1        0.2211
     26 C          17.4052   43.8563    7.2665 C.3     1  UNL1        0.0522
     27 N          15.1578   43.0566    6.6494 N.ar    1  UNL1       -0.2179
     28 N          14.1102   41.2668    7.7571 N.ar    1  UNL1       -0.2179
@<TRIPOS>BOND
     1    21    22    1
     2    22    28   ar
     3    23    24   ar
     4    25    27   ar
     5    25    19    1
     6     2     5   ar
     7     3     6   ar
     8     4     1   ar
     9     7     2    1
    10     7     8    1
    11     8     9    1
    12     9    10    1
    13    10    12    1
    14    11    12    1
    15    11     7    1
    16    14    17   ar
    17    15    18   ar
    18    16    13   ar
    19    26    24    1
    20    19     1    1
    21    12    13    1
    22    22    23   ar
    23    24    27   ar
    24    25    28   ar
    25     1     5   ar
    26     2     3   ar
    27     4     6   ar
    28    13    17   ar
    29    14    15   ar
    30    16    18   ar
    31    19    20    1
@<TRIPOS>MOLECULE
MolPort-020-279-174 MCULE-1711178122 PubChem-110255928
 28 31 0 0 0
SMALL
GASTEIGER

@<TRIPOS>ATOM
      1 C          12.7354   42.3960    6.3602 C.ar    1  UNL1        0.1533
      2 C          14.2459   41.3283    7.8497 C.ar    1  UNL1        0.0808
      3 C          15.2199   42.2886    7.5495 C.ar    1  UNL1        0.1137
      4 C          13.7150   43.3530    6.0655 C.ar    1  UNL1        0.1332
      5 N          13.0301   41.4078    7.2465 N.ar    1  UNL1       -0.2316
      6 N          14.9318   43.2782    6.6650 N.ar    1  UNL1       -0.2382
      7 C          14.5166   40.2191    8.8150 C.3     1  UNL1        0.0617
      8 C          13.3834   40.0865    9.8358 C.3     1  UNL1        0.0094
      9 C          13.6685   38.9379   10.8011 C.3     1  UNL1        0.0219
     10 C          15.0002   39.1698   11.5085 C.3     1  UNL1        0.0922
     11 C          15.8592   40.4205    9.5187 C.3     1  UNL1        0.0981
     12 N          16.0512   39.3675   10.5139 N.pl3   1  UNL1       -0.2916
     13 C          17.2199   38.5318   10.5058 C.ar    1  UNL1        0.1511
     14 C          19.4686   38.1662    9.8356 C.ar    1  UNL1        0.1210
     15 C          19.4667   36.9337   10.4891 C.ar    1  UNL1        0.1196
     16 C          17.2248   37.2921   11.1606 C.ar    1  UNL1        0.1331
     17 N          18.3486   38.9358    9.8584 N.ar    1  UNL1       -0.2259
     18 N          18.3452   36.5235   11.1372 N.ar    1  UNL1       -0.2378
     19 N          11.4339   42.4252    5.7575 N.pl3   1  UNL1       -0.2667
     20 H          11.1111   43.3062    5.4595 H       1  UNL1        0.1565
     21 C           7.2443   40.1845    6.8285 C.3     1  UNL1        0.0522
     22 C           8.5141   40.2264    6.0576 C.ar    1  UNL1        0.0634
     23 C           8.8150   39.2085    5.1548 C.ar    1  UNL1        0.0296
     24 C          10.0152   39.2838    4.4511 C.ar    1  UNL1        0.0634
     25 C          10.5491   41.3179    5.5394 C.ar    1  UNL1        0.2211
     26 C          10.3751   38.2193    3.4786 C.3     1  UNL1        0.0522
     27 N          10.8566   40.3306    4.6541 N.ar    1  UNL1       -0.2179
     28 N           9.3814   41.2574    6.2329 N.ar    1  UNL1       -0.2179
@<TRIPOS>BOND
     1    21    22    1
     2    22    28   ar
     3    23    24   ar
     4    25    27   ar
     5    25    19    1
     6     2     5   ar
     7     3     6   ar
     8     4     1   ar
     9     7     2    1
    10     7     8    1
    11     8     9    1
    12     9    10    1
    13    10    12    1
    14    11    12    1
    15    11     7    1
    16    14    17   ar
    17    15    18   ar
    18    16    13   ar
    19    26    24    1
    20    19     1    1
    21    12    13    1
    22    22    23   ar
    23    24    27   ar
    24    25    28   ar
    25     1     5   ar
    26     2     3   ar
    27     4     6   ar
    28    13    17   ar
    29    14    15   ar
    30    16    18   ar
    31    19    20    1
@<TRIPOS>MOLECULE
MolPort-020-279-174 MCULE-1711178122 PubChem-110255928
 28 31 0 0 0
SMALL
GASTEIGER

@<TRIPOS>ATOM
      1 C           8.3126   40.9017    7.8830 C.ar    1  UNL1        0.1533
      2 C          10.4891   40.7737    6.9415 C.ar    1  UNL1        0.0808
      3 C           9.9347   40.8119    5.6560 C.ar    1  UNL1        0.1137
      4 C           7.7658   40.9398    6.5939 C.ar    1  UNL1        0.1332
      5 N           9.6629   40.8192    8.0201 N.ar    1  UNL1       -0.2316
      6 N           8.5867   40.8942    5.5123 N.ar    1  UNL1       -0.2382
      7 C          11.9667   40.6812    7.1504 C.3     1  UNL1        0.0617
      8 C          12.3097   39.6341    8.2131 C.3     1  UNL1        0.0094
      9 C          13.8226   39.5408    8.3994 C.3     1  UNL1        0.0219
     10 C          14.3845   40.9039    8.7918 C.3     1  UNL1        0.0922
     11 C          12.5539   42.0433    7.5222 C.3     1  UNL1        0.0981
     12 N          13.9811   41.8993    7.8021 N.pl3   1  UNL1       -0.2916
     13 C          14.9642   42.6880    7.1123 C.ar    1  UNL1        0.1511
     14 C          17.1943   43.4864    6.9430 C.ar    1  UNL1        0.1210
     15 C          16.8560   44.1976    5.7916 C.ar    1  UNL1        0.1196
     16 C          14.6310   43.4050    5.9546 C.ar    1  UNL1        0.1331
     17 N          16.2439   42.7495    7.5760 N.ar    1  UNL1       -0.2259
     18 N          15.5822   44.1416    5.3225 N.ar    1  UNL1       -0.2378
     19 N           7.4947   40.9465    9.0608 N.pl3   1  UNL1       -0.2667
     20 H           7.7806   40.3779    9.8119 H       1  UNL1        0.1565
     21 C           4.7148   44.7170    7.7284 C.3     1  UNL1        0.0522
     22 C           4.9553   43.5563    8.6245 C.ar    1  UNL1        0.0634
     23 C           4.0410   43.2520    9.6312 C.ar    1  UNL1        0.0296
     24 C           4.3020   42.1558   10.4507 C.ar    1  UNL1        0.0634
     25 C           6.3085   41.7247    9.2694 C.ar    1  UNL1        0.2211
     26 C           3.3532   41.7964   11.5364 C.3     1  UNL1        0.0522
     27 N           5.4243   41.4156   10.2571 N.ar    1  UNL1       -0.2179
     28 N           6.0665   42.7916    8.4622 N.ar    1  UNL1       -0.2179
@<TRIPOS>BOND
     1    21    22    1
     2    22    28   ar
     3    23    24   ar
     4    25    27   ar
     5    25    19    1
     6     2     5   ar
     7     3     6   ar
     8     4     1   ar
     9     7     2    1
    10     7     8    1
    11     8     9    1
    12     9    10    1
    13    10    12    1
    14    11    12    1
    15    11     7    1
    16    14    17   ar
    17    15    18   ar
    18    16    13   ar
    19    26    24    1
    20    19     1    1
    21    12    13    1
    22    22    23   ar
    23    24    27   ar
    24    25    28   ar
    25     1     5   ar
    26     2     3   ar
    27     4     6   ar
    28    13    17   ar
    29    14    15   ar
    30    16    18   ar
    31    19    20    1
@<TRIPOS>MOLECULE
MolPort-020-279-174 MCULE-1711178122 PubChem-110255928
 28 31 0 0 0
SMALL
GASTEIGER

@<TRIPOS>ATOM
      1 C           8.3131   40.8293    7.8906 C.ar    1  UNL1        0.1533
      2 C          10.4883   40.6854    6.9484 C.ar    1  UNL1        0.0808
      3 C           9.9292   40.6436    5.6651 C.ar    1  UNL1        0.1137
      4 C           7.7616   40.7873    6.6036 C.ar    1  UNL1        0.1332
      5 N           9.6651   40.7768    8.0263 N.ar    1  UNL1       -0.2316
      6 N           8.5795   40.6956    5.5227 N.ar    1  UNL1       -0.2382
      7 C          11.9679   40.6289    7.1559 C.3     1  UNL1        0.0617
      8 C          12.3354   39.6103    8.2379 C.3     1  UNL1        0.0094
      9 C          13.8502   39.5533    8.4228 C.3     1  UNL1        0.0219
     10 C          14.3832   40.9356    8.7874 C.3     1  UNL1        0.0922
     11 C          12.5262   42.0104    7.5000 C.3     1  UNL1        0.0981
     12 N          13.9567   41.9027    7.7795 N.pl3   1  UNL1       -0.2916
     13 C          14.9213   42.6989    7.0725 C.ar    1  UNL1        0.1511
     14 C          17.1364   43.5320    6.8763 C.ar    1  UNL1        0.1210
     15 C          16.7777   44.2230    5.7187 C.ar    1  UNL1        0.1196
     16 C          14.5676   43.3957    5.9086 C.ar    1  UNL1        0.1331
     17 N          16.2032   42.7874    7.5256 N.ar    1  UNL1       -0.2259
     18 N          15.5015   44.1400    5.2601 N.ar    1  UNL1       -0.2378
     19 N           7.4985   40.9256    9.0675 N.pl3   1  UNL1       -0.2667
     20 H           7.7845   40.3875    9.8408 H       1  UNL1        0.1565
     21 C           3.3488   41.6963   11.4977 C.3     1  UNL1        0.0522
     22 C           4.2981   42.0931   10.4255 C.ar    1  UNL1        0.0634
     23 C           4.0258   43.2043    9.6299 C.ar    1  UNL1        0.0296
     24 C           4.9404   43.5441    8.6352 C.ar    1  UNL1        0.0634
     25 C           6.3154   41.7158    9.2467 C.ar    1  UNL1        0.2211
     26 C           4.6886   44.7215    7.7643 C.3     1  UNL1        0.0522
     27 N           6.0625   42.7987    8.4616 N.ar    1  UNL1       -0.2179
     28 N           5.4316   41.3726   10.2212 N.ar    1  UNL1       -0.2179
@<TRIPOS>BOND
     1    21    22    1
     2    22    28   ar
     3    23    24   ar
     4    25    27   ar
     5    25    19    1
     6     2     5   ar
     7     3     6   ar
     8     4     1   ar
     9     7     2    1
    10     7     8    1
    11     8     9    1
    12     9    10    1
    13    10    12    1
    14    11    12    1
    15    11     7    1
    16    14    17   ar
    17    15    18   ar
    18    16    13   ar
    19    26    24    1
    20    19     1    1
    21    12    13    1
    22    22    23   ar
    23    24    27   ar
    24    25    28   ar
    25     1     5   ar
    26     2     3   ar
    27     4     6   ar
    28    13    17   ar
    29    14    15   ar
    30    16    18   ar
    31    19    20    1
@<TRIPOS>MOLECULE
MolPort-020-279-174 MCULE-1711178122 PubChem-110255928
 28 31 0 0 0
SMALL
GASTEIGER

@<TRIPOS>ATOM
      1 C           8.3734   41.3820   11.2028 C.ar    1  UNL1        0.1533
      2 C          10.2570   41.6736    9.7861 C.ar    1  UNL1        0.0808
      3 C          11.1078   41.3642   10.8546 C.ar    1  UNL1        0.1137
      4 C           9.2311   41.0731   12.2663 C.ar    1  UNL1        0.1332
      5 N           8.9129   41.6745    9.9894 N.ar    1  UNL1       -0.2316
      6 N          10.5752   41.0711   12.0691 N.ar    1  UNL1       -0.2382
      7 C          10.7961   42.0048    8.4314 C.3     1  UNL1        0.0617
      8 C          10.0257   41.2652    7.3345 C.3     1  UNL1        0.0094
      9 C          10.5780   41.6298    5.9582 C.3     1  UNL1        0.0219
     10 C          12.0643   41.2930    5.8869 C.3     1  UNL1        0.0922
     11 C          12.2914   41.6960    8.3460 C.3     1  UNL1        0.0981
     12 N          12.7651   41.9501    6.9870 N.pl3   1  UNL1       -0.2916
     13 C          13.8665   42.8361    6.7298 C.ar    1  UNL1        0.1511
     14 C          14.7059   44.8185    5.7273 C.ar    1  UNL1        0.1210
     15 C          15.9755   44.5418    6.2349 C.ar    1  UNL1        0.1196
     16 C          15.1448   42.5641    7.2370 C.ar    1  UNL1        0.1331
     17 N          13.6825   43.9622    5.9852 N.ar    1  UNL1       -0.2259
     18 N          16.1674   43.4210    6.9785 N.ar    1  UNL1       -0.2378
     19 N           6.9468   41.3997   11.3529 N.pl3   1  UNL1       -0.2667
     20 H           6.5899   40.9934   12.1756 H       1  UNL1        0.1565
     21 C           2.4604   41.2192    9.4662 C.3     1  UNL1        0.0522
     22 C           3.8016   41.8565    9.5228 C.ar    1  UNL1        0.0634
     23 C           4.0897   42.9475    8.7052 C.ar    1  UNL1        0.0296
     24 C           5.3585   43.5173    8.7876 C.ar    1  UNL1        0.0634
     25 C           5.9810   41.9415   10.4418 C.ar    1  UNL1        0.2211
     26 C           5.7075   44.6821    7.9334 C.3     1  UNL1        0.0522
     27 N           6.2768   43.0078    9.6490 N.ar    1  UNL1       -0.2179
     28 N           4.7468   41.3755   10.3720 N.ar    1  UNL1       -0.2179
@<TRIPOS>BOND
     1    21    22    1
     2    22    28   ar
     3    23    24   ar
     4    25    27   ar
     5    25    19    1
     6     2     5   ar
     7     3     6   ar
     8     4     1   ar
     9     7     2    1
    10     7     8    1
    11     8     9    1
    12     9    10    1
    13    10    12    1
    14    11    12    1
    15    11     7    1
    16    14    17   ar
    17    15    18   ar
    18    16    13   ar
    19    26    24    1
    20    19     1    1
    21    12    13    1
    22    22    23   ar
    23    24    27   ar
    24    25    28   ar
    25     1     5   ar
    26     2     3   ar
    27     4     6   ar
    28    13    17   ar
    29    14    15   ar
    30    16    18   ar
    31    19    20    1
@<TRIPOS>MOLECULE
MolPort-020-279-174 MCULE-1711178122 PubChem-110255928
 28 31 0 0 0
SMALL
GASTEIGER

@<TRIPOS>ATOM
      1 C          16.2295   42.0586    8.0886 C.ar    1  UNL1        0.1533
      2 C          13.9256   42.0824    7.5125 C.ar    1  UNL1        0.0808
      3 C          14.1552   43.1544    6.6410 C.ar    1  UNL1        0.1137
      4 C          16.4509   43.1306    7.2146 C.ar    1  UNL1        0.1332
      5 N          14.9690   41.5639    8.2129 N.ar    1  UNL1       -0.2316
      6 N          15.4119   43.6531    6.5123 N.ar    1  UNL1       -0.2382
      7 C          12.5597   41.5007    7.6894 C.3     1  UNL1        0.0617
      8 C          11.9397   41.1269    6.3406 C.3     1  UNL1        0.0094
      9 C          10.5538   40.5180    6.5424 C.3     1  UNL1        0.0219
     10 C           9.6564   41.5006    7.2888 C.3     1  UNL1        0.0922
     11 C          11.6501   42.4613    8.4565 C.3     1  UNL1        0.0981
     12 N          10.3034   41.8991    8.5361 N.pl3   1  UNL1       -0.2916
     13 C           9.6401   41.7162    9.7974 C.ar    1  UNL1        0.1511
     14 C           7.6447   41.7581   11.0841 C.ar    1  UNL1        0.1210
     15 C           8.3611   41.3642   12.2144 C.ar    1  UNL1        0.1196
     16 C          10.3540   41.3204   10.9371 C.ar    1  UNL1        0.1331
     17 N           8.2980   41.9248    9.9041 N.ar    1  UNL1       -0.2259
     18 N           9.6998   41.1540   12.1165 N.ar    1  UNL1       -0.2378
     19 N          17.2881   41.4674    8.8554 N.pl3   1  UNL1       -0.2667
     20 H          18.1512   41.9410    8.8445 H       1  UNL1        0.1565
     21 C          14.7622   38.5723   11.8484 C.3     1  UNL1        0.0522
     22 C          16.0084   38.8567   11.0906 C.ar    1  UNL1        0.0634
     23 C          17.0794   37.9671   11.1516 C.ar    1  UNL1        0.0296
     24 C          18.2305   38.2691   10.4270 C.ar    1  UNL1        0.0634
     25 C          17.2331   40.2658    9.6359 C.ar    1  UNL1        0.2211
     26 C          19.3958   37.3477   10.4643 C.3     1  UNL1        0.0522
     27 N          18.2874   39.4061    9.6861 N.ar    1  UNL1       -0.2179
     28 N          16.1036   39.9838   10.3380 N.ar    1  UNL1       -0.2179
@<TRIPOS>BOND
     1    21    22    1
     2    22    28   ar
     3    23    24   ar
     4    25    27   ar
     5    25    19    1
     6     2     5   ar
     7     3     6   ar
     8     4     1   ar
     9     7     2    1
    10     7     8    1
    11     8     9    1
    12     9    10    1
    13    10    12    1
    14    11    12    1
    15    11     7    1
    16    14    17   ar
    17    15    18   ar
    18    16    13   ar
    19    26    24    1
    20    19     1    1
    21    12    13    1
    22    22    23   ar
    23    24    27   ar
    24    25    28   ar
    25     1     5   ar
    26     2     3   ar
    27     4     6   ar
    28    13    17   ar
    29    14    15   ar
    30    16    18   ar
    31    19    20    1
@<TRIPOS>MOLECULE
MolPort-020-279-174 MCULE-1711178122 PubChem-110255928
 28 31 0 0 0
SMALL
GASTEIGER

@<TRIPOS>ATOM
      1 C          16.5364   39.5132   10.4125 C.ar    1  UNL1        0.1533
      2 C          14.4426   38.4704   10.8233 C.ar    1  UNL1        0.0808
      3 C          15.0770   37.5139   11.6257 C.ar    1  UNL1        0.1137
      4 C          17.1634   38.5530   11.2169 C.ar    1  UNL1        0.1332
      5 N          15.1896   39.4439   10.2382 N.ar    1  UNL1       -0.2316
      6 N          16.4219   37.5776   11.8038 N.ar    1  UNL1       -0.2382
      7 C          12.9652   38.4406   10.5959 C.3     1  UNL1        0.0617
      8 C          12.5208   37.0900   10.0286 C.3     1  UNL1        0.0094
      9 C          11.0080   37.0720    9.8204 C.3     1  UNL1        0.0219
     10 C          10.5969   38.2053    8.8854 C.3     1  UNL1        0.0922
     11 C          12.5287   39.5838    9.6787 C.3     1  UNL1        0.0981
     12 N          11.0964   39.4736    9.4097 N.pl3   1  UNL1       -0.2916
     13 C          10.1975   40.5629    9.6739 C.ar    1  UNL1        0.1511
     14 C           8.5249   42.0658    8.9104 C.ar    1  UNL1        0.1210
     15 C           8.4684   42.6511   10.1755 C.ar    1  UNL1        0.1196
     16 C          10.1355   41.1554   10.9429 C.ar    1  UNL1        0.1331
     17 N           9.3856   41.0377    8.6882 N.ar    1  UNL1       -0.2259
     18 N           9.2746   42.1834   11.1640 N.ar    1  UNL1       -0.2378
     19 N          17.2685   40.5652    9.7680 N.pl3   1  UNL1       -0.2667
     20 H          18.2080   40.6735   10.0417 H       1  UNL1        0.1565
     21 C          13.5841   42.1088    6.9819 C.3     1  UNL1        0.0522
     22 C          15.0003   42.2295    7.4153 C.ar    1  UNL1        0.0634
     23 C          15.8195   43.2078    6.8551 C.ar    1  UNL1        0.0296
     24 C          17.1414   43.2891    7.2877 C.ar    1  UNL1        0.0634
     25 C          16.7887   41.4770    8.7707 C.ar    1  UNL1        0.2211
     26 C          18.0490   44.3176    6.7163 C.3     1  UNL1        0.0522
     27 N          17.6007   42.4276    8.2322 N.ar    1  UNL1       -0.2179
     28 N          15.4965   41.3862    8.3579 N.ar    1  UNL1       -0.2179
@<TRIPOS>BOND
     1    21    22    1
     2    22    28   ar
     3    23    24   ar
     4    25    27   ar
     5    25    19    1
     6     2     5   ar
     7     3     6   ar
     8     4     1   ar
     9     7     2    1
    10     7     8    1
    11     8     9    1
    12     9    10    1
    13    10    12    1
    14    11    12    1
    15    11     7    1
    16    14    17   ar
    17    15    18   ar
    18    16    13   ar
    19    26    24    1
    20    19     1    1
    21    12    13    1
    22    22    23   ar
    23    24    27   ar
    24    25    28   ar
    25     1     5   ar
    26     2     3   ar
    27     4     6   ar
    28    13    17   ar
    29    14    15   ar
    30    16    18   ar
    31    19    20    1
@<TRIPOS>MOLECULE
MolPort-020-279-174 MCULE-1711178122 PubChem-110255928
 28 31 0 0 0
SMALL
GASTEIGER

@<TRIPOS>ATOM
      1 C          15.1786   41.8920    7.8456 C.ar    1  UNL1        0.1533
      2 C          12.8503   41.7054    7.4166 C.ar    1  UNL1        0.0808
      3 C          12.9596   42.6698    6.4070 C.ar    1  UNL1        0.1137
      4 C          15.2797   42.8556    6.8340 C.ar    1  UNL1        0.1332
      5 N          13.9628   41.3429    8.1087 N.ar    1  UNL1       -0.2316
      6 N          14.1712   43.2220    6.1393 N.ar    1  UNL1       -0.2382
      7 C          11.5381   41.0706    7.7491 C.3     1  UNL1        0.0617
      8 C          11.5958   39.5523    7.5620 C.3     1  UNL1        0.0094
      9 C          10.2535   38.9201    7.9236 C.3     1  UNL1        0.0219
     10 C           9.1455   39.5223    7.0650 C.3     1  UNL1        0.0922
     11 C          10.4089   41.6770    6.9150 C.3     1  UNL1        0.0981
     12 N           9.1591   40.9762    7.2030 N.pl3   1  UNL1       -0.2916
     13 C           7.9848   41.6830    7.6339 C.ar    1  UNL1        0.1511
     14 C           6.3937   43.4107    7.2839 C.ar    1  UNL1        0.1210
     15 C           5.7302   43.0417    8.4542 C.ar    1  UNL1        0.1196
     16 C           7.3132   41.3173    8.8089 C.ar    1  UNL1        0.1331
     17 N           7.5029   42.7253    6.9007 N.ar    1  UNL1       -0.2259
     18 N           6.2042   42.0033    9.1912 N.ar    1  UNL1       -0.2378
     19 N          16.3148   41.4669    8.6114 N.pl3   1  UNL1       -0.2667
     20 H          17.1369   41.9977    8.5030 H       1  UNL1        0.1565
     21 C          18.9837   37.9261   10.6263 C.3     1  UNL1        0.0522
     22 C          17.6844   38.6357   10.4977 C.ar    1  UNL1        0.0634
     23 C          16.5852   38.2175   11.2452 C.ar    1  UNL1        0.0296
     24 C          15.3844   38.9086   11.0968 C.ar    1  UNL1        0.0634
     25 C          16.3903   40.3575    9.5168 C.ar    1  UNL1        0.2211
     26 C          14.1877   38.4956   11.8748 C.3     1  UNL1        0.0522
     27 N          15.3079   39.9602   10.2404 N.ar    1  UNL1       -0.2179
     28 N          17.5683   39.6923    9.6517 N.ar    1  UNL1       -0.2179
@<TRIPOS>BOND
     1    21    22    1
     2    22    28   ar
     3    23    24   ar
     4    25    27   ar
     5    25    19    1
     6     2     5   ar
     7     3     6   ar
     8     4     1   ar
     9     7     2    1
    10     7     8    1
    11     8     9    1
    12     9    10    1
    13    10    12    1
    14    11    12    1
    15    11     7    1
    16    14    17   ar
    17    15    18   ar
    18    16    13   ar
    19    26    24    1
    20    19     1    1
    21    12    13    1
    22    22    23   ar
    23    24    27   ar
    24    25    28   ar
    25     1     5   ar
    26     2     3   ar
    27     4     6   ar
    28    13    17   ar
    29    14    15   ar
    30    16    18   ar
    31    19    20    1
