@<TRIPOS>MOLECULE
MolPort-007-657-051 CSSS00025804467 ChemDiv-C685-0468 MCULE-4330609593 PubChem-20875034
 27 29 0 0 0
SMALL
GASTEIGER

@<TRIPOS>ATOM
      1 C          14.6872   39.0390   10.7324 C.ar    1  UNL1       -0.0130
      2 C          15.0109   39.7569    9.5768 C.ar    1  UNL1       -0.0025
      3 C          14.1065   40.6829    9.0517 C.ar    1  UNL1        0.0143
      4 C          12.8709   40.9011    9.6758 C.ar    1  UNL1        0.0497
      5 C          12.5571   40.1889   10.8377 C.ar    1  UNL1        0.0143
      6 C          13.4624   39.2658   11.3669 C.ar    1  UNL1       -0.0025
      7 N          11.9207   41.8484    9.1683 N.pl3   1  UNL1       -0.2933
      8 H          12.0491   42.1430    8.2377 H       1  UNL1        0.1541
      9 C          10.8045   42.4127    9.8687 C.2     1  UNL1        0.1550
     10 C           9.2418   44.0145   10.4284 C.3     1  UNL1        0.1406
     11 C           8.3928   44.9344    9.5615 C.3     1  UNL1        0.1760
     12 C           7.5270   42.3782    9.5938 C.3     1  UNL1        0.1640
     13 C           8.4817   42.7133   10.7327 C.3     1  UNL1        0.1022
     14 N          10.4550   43.6452    9.7262 N.2     1  UNL1       -0.2501
     15 O           7.5889   43.7430    7.2709 O.2     1  UNL1       -0.1729
     16 O           5.8263   44.3502    8.9049 O.2     1  UNL1       -0.1729
     17 S           7.2468   43.8859    8.7278 S.O2    1  UNL1       -0.0071
     18 S           9.7247   41.3933   10.8542 S.3     1  UNL1       -0.0773
     19 C          15.6605   38.0647   11.3041 C.3     1  UNL1        0.1116
     20 C          19.1203   38.1034    9.5393 C.3     1  UNL1        0.1148
     21 C          17.0610   38.4369   10.9283 C.2     1  UNL1        0.2301
     22 N          17.7638   37.7226    9.8984 N.am    1  UNL1       -0.2775
     23 O          17.6303   39.3713   11.5567 O.2     1  UNL1       -0.2745
     24 C          17.0772   36.7412    9.0721 C.3     1  UNL1        0.0935
     25 C          15.9402   36.1047    9.8562 C.3     1  UNL1        0.0215
     26 C          13.5872   35.2965    9.7071 C.3     1  UNL1        0.0001
     27 C          14.8383   35.6418    8.9183 C.3     1  UNL1        0.0018
@<TRIPOS>BOND
     1    26    27    1
     2    27    25    1
     3    25    24    1
     4    24    22    1
     5    20    22    1
     6    19    21    1
     7    19     1    1
     8     2     3   ar
     9     4     7    1
    10     4     5   ar
    11     9    18    1
    12    10    14    1
    13    10    11    1
    14    11    17    1
    15    13    12    1
    16    13    18    1
    17    13    10    1
    18     6     1   ar
    19    22    21   am
    20     7     9    1
    21    17    12    1
    22    21    23    2
    23     1     2   ar
    24     3     4   ar
    25     9    14    2
    26     5     6   ar
    27    17    15    2
    28    17    16    2
    29     7     8    1
@<TRIPOS>MOLECULE
MolPort-007-657-051 CSSS00025804467 ChemDiv-C685-0468 MCULE-4330609593 PubChem-20875034
 27 29 0 0 0
SMALL
GASTEIGER

@<TRIPOS>ATOM
      1 C           8.1213   41.4566    9.3440 C.ar    1  UNL1       -0.0130
      2 C           8.0919   40.6793    8.1820 C.ar    1  UNL1       -0.0025
      3 C           9.2578   40.0616    7.7232 C.ar    1  UNL1        0.0143
      4 C          10.4636   40.2138    8.4209 C.ar    1  UNL1        0.0497
      5 C          10.4848   40.9827    9.5888 C.ar    1  UNL1        0.0143
      6 C           9.3188   41.5974   10.0515 C.ar    1  UNL1       -0.0025
      7 N          11.6783   39.5892    7.9827 N.pl3   1  UNL1       -0.2933
      8 H          12.1363   40.0084    7.2187 H       1  UNL1        0.1541
      9 C          12.2978   38.4210    8.5363 C.2     1  UNL1        0.1550
     10 C          14.0180   36.9678    9.0364 C.3     1  UNL1        0.1406
     11 C          15.4308   37.2219    9.5443 C.3     1  UNL1        0.1760
     12 C          13.5336   37.5037   11.4432 C.3     1  UNL1        0.1640
     13 C          13.0585   36.7374   10.2153 C.3     1  UNL1        0.1022
     14 N          13.5320   38.1249    8.3111 N.2     1  UNL1       -0.2501
     15 O          15.5465   39.2886   11.2844 O.2     1  UNL1       -0.1729
     16 O          16.0849   37.0369   12.1706 O.2     1  UNL1       -0.1729
     17 S          15.2484   37.8180   11.1933 S.O2    1  UNL1       -0.0071
     18 S          11.4401   37.3936    9.7131 S.3     1  UNL1       -0.0773
     19 C           6.8728   42.1001    9.8446 C.3     1  UNL1        0.1116
     20 C           4.5887   44.5019    7.8196 C.3     1  UNL1        0.1148
     21 C           6.4141   43.1663    8.8990 C.2     1  UNL1        0.2301
     22 N           5.0164   43.4565    8.7352 N.am    1  UNL1       -0.2775
     23 O           7.2770   43.7870    8.2191 O.2     1  UNL1       -0.2745
     24 C           4.0232   42.8516    9.6098 C.3     1  UNL1        0.0935
     25 C           3.7575   41.4168    9.1817 C.3     1  UNL1        0.0215
     26 C           3.6717   41.3359   11.6712 C.3     1  UNL1        0.0001
     27 C           3.6277   40.5126   10.3957 C.3     1  UNL1        0.0018
@<TRIPOS>BOND
     1    26    27    1
     2    27    25    1
     3    25    24    1
     4    24    22    1
     5    20    22    1
     6    19    21    1
     7    19     1    1
     8     2     3   ar
     9     4     7    1
    10     4     5   ar
    11     9    18    1
    12    10    14    1
    13    10    11    1
    14    11    17    1
    15    13    12    1
    16    13    18    1
    17    13    10    1
    18     6     1   ar
    19    22    21   am
    20     7     9    1
    21    17    12    1
    22    21    23    2
    23     1     2   ar
    24     3     4   ar
    25     9    14    2
    26     5     6   ar
    27    17    15    2
    28    17    16    2
    29     7     8    1
@<TRIPOS>MOLECULE
MolPort-007-657-051 CSSS00025804467 ChemDiv-C685-0468 MCULE-4330609593 PubChem-20875034
 27 29 0 0 0
SMALL
GASTEIGER

@<TRIPOS>ATOM
      1 C           8.8850   41.6314    9.6206 C.ar    1  UNL1       -0.0130
      2 C           8.5922   40.8287    8.5137 C.ar    1  UNL1       -0.0025
      3 C           9.5799   40.0088    7.9628 C.ar    1  UNL1        0.0143
      4 C          10.8688   39.9824    8.5125 C.ar    1  UNL1        0.0497
      5 C          11.1528   40.7785    9.6265 C.ar    1  UNL1        0.0143
      6 C          10.1650   41.5957   10.1816 C.ar    1  UNL1       -0.0025
      7 N          11.9056   39.1483    7.9769 N.pl3   1  UNL1       -0.2933
      8 H          12.2120   39.3598    7.0655 H       1  UNL1        0.1541
      9 C          12.5442   38.0401    8.6244 C.2     1  UNL1        0.1550
     10 C          14.2824   36.6439    9.2158 C.3     1  UNL1        0.1406
     11 C          15.7080   36.9472    9.6566 C.3     1  UNL1        0.1760
     12 C          13.8635   37.4123   11.5713 C.3     1  UNL1        0.1640
     13 C          13.3570   36.5292   10.4380 C.3     1  UNL1        0.1022
     14 N          13.7726   37.7242    8.3948 N.2     1  UNL1       -0.2501
     15 O          15.8652   39.1743   11.1824 O.2     1  UNL1       -0.1729
     16 O          16.4356   37.0204   12.2690 O.2     1  UNL1       -0.1729
     17 S          15.5696   37.7016   11.2439 S.O2    1  UNL1       -0.0071
     18 S          11.7229   37.1323    9.9196 S.3     1  UNL1       -0.0773
     19 C           7.8255   42.4921   10.2208 C.3     1  UNL1        0.1116
     20 C           4.6224   40.6059   11.3472 C.3     1  UNL1        0.1148
     21 C           6.8699   41.6672   11.0256 C.2     1  UNL1        0.2301
     22 N           5.5346   41.4172   10.5574 N.am    1  UNL1       -0.2775
     23 O           7.2464   41.2202   12.1440 O.2     1  UNL1       -0.2745
     24 C           5.1324   41.8041    9.2136 C.3     1  UNL1        0.0935
     25 C           4.3824   43.1264    9.2552 C.3     1  UNL1        0.0215
     26 C           3.8061   45.0234    7.7449 C.3     1  UNL1        0.0001
     27 C           4.9034   44.0697    8.1843 C.3     1  UNL1        0.0018
@<TRIPOS>BOND
     1    26    27    1
     2    27    25    1
     3    25    24    1
     4    24    22    1
     5    20    22    1
     6    19    21    1
     7    19     1    1
     8     2     3   ar
     9     4     7    1
    10     4     5   ar
    11     9    18    1
    12    10    14    1
    13    10    11    1
    14    11    17    1
    15    13    12    1
    16    13    18    1
    17    13    10    1
    18     6     1   ar
    19    22    21   am
    20     7     9    1
    21    17    12    1
    22    21    23    2
    23     1     2   ar
    24     3     4   ar
    25     9    14    2
    26     5     6   ar
    27    17    15    2
    28    17    16    2
    29     7     8    1
@<TRIPOS>MOLECULE
MolPort-007-657-051 CSSS00025804467 ChemDiv-C685-0468 MCULE-4330609593 PubChem-20875034
 27 29 0 0 0
SMALL
GASTEIGER

@<TRIPOS>ATOM
      1 C          13.2066   40.7022    9.2369 C.ar    1  UNL1       -0.0130
      2 C          12.4581   40.0189   10.2003 C.ar    1  UNL1       -0.0025
      3 C          11.1668   40.4472   10.5169 C.ar    1  UNL1        0.0143
      4 C          10.6107   41.5614    9.8740 C.ar    1  UNL1        0.0497
      5 C          11.3593   42.2341    8.9031 C.ar    1  UNL1        0.0143
      6 C          12.6492   41.8043    8.5819 C.ar    1  UNL1       -0.0025
      7 N           9.2859   42.0254   10.1692 N.pl3   1  UNL1       -0.2933
      8 H           9.1291   42.3517   11.0848 H       1  UNL1        0.1541
      9 C           8.1653   42.0657    9.2761 C.2     1  UNL1        0.1550
     10 C           6.1534   41.3983    8.3663 C.3     1  UNL1        0.1406
     11 C           4.8478   40.9703    9.0226 C.3     1  UNL1        0.1760
     12 C           5.2784   43.6333    9.1102 C.3     1  UNL1        0.1640
     13 C           6.1406   42.9095    8.0839 C.3     1  UNL1        0.1022
     14 N           7.2682   41.1403    9.2561 N.2     1  UNL1       -0.2501
     15 O           4.3260   42.3574   11.2845 O.2     1  UNL1       -0.1729
     16 O           2.7730   42.6812    9.3796 O.2     1  UNL1       -0.1729
     17 S           4.1976   42.4191    9.7880 S.O2    1  UNL1       -0.0071
     18 S           7.8539   43.4913    8.2529 S.3     1  UNL1       -0.0773
     19 C          14.5777   40.2336    8.8848 C.3     1  UNL1        0.1116
     20 C          17.4167   39.3706   11.3911 C.3     1  UNL1        0.1148
     21 C          15.2999   39.7537   10.1052 C.2     1  UNL1        0.2301
     22 N          16.7319   39.8325   10.1946 N.am    1  UNL1       -0.2775
     23 O          14.6306   39.2448   11.0461 O.2     1  UNL1       -0.2745
     24 C          17.5027   40.5414    9.1843 C.3     1  UNL1        0.0935
     25 C          17.0798   42.0013    9.1362 C.3     1  UNL1        0.0215
     26 C          17.0041   43.9949    7.6422 C.3     1  UNL1        0.0001
     27 C          17.7486   42.7129    7.9724 C.3     1  UNL1        0.0018
@<TRIPOS>BOND
     1    26    27    1
     2    27    25    1
     3    25    24    1
     4    24    22    1
     5    20    22    1
     6    19    21    1
     7    19     1    1
     8     2     3   ar
     9     4     7    1
    10     4     5   ar
    11     9    18    1
    12    10    14    1
    13    10    11    1
    14    11    17    1
    15    13    12    1
    16    13    18    1
    17    13    10    1
    18     6     1   ar
    19    22    21   am
    20     7     9    1
    21    17    12    1
    22    21    23    2
    23     1     2   ar
    24     3     4   ar
    25     9    14    2
    26     5     6   ar
    27    17    15    2
    28    17    16    2
    29     7     8    1
@<TRIPOS>MOLECULE
MolPort-007-657-051 CSSS00025804467 ChemDiv-C685-0468 MCULE-4330609593 PubChem-20875034
 27 29 0 0 0
SMALL
GASTEIGER

@<TRIPOS>ATOM
      1 C          14.4765   38.3917   10.9377 C.ar    1  UNL1       -0.0130
      2 C          14.0945   37.5238    9.9100 C.ar    1  UNL1       -0.0025
      3 C          12.8460   37.6676    9.3002 C.ar    1  UNL1        0.0143
      4 C          11.9678   38.6797    9.7105 C.ar    1  UNL1        0.0497
      5 C          12.3595   39.5520   10.7309 C.ar    1  UNL1        0.0143
      6 C          13.6096   39.4126   11.3387 C.ar    1  UNL1       -0.0025
      7 N          10.6810   38.8607    9.1028 N.pl3   1  UNL1       -0.2933
      8 H           9.9363   38.3470    9.4910 H       1  UNL1        0.1541
      9 C          10.3616   39.7084    7.9918 C.2     1  UNL1        0.1550
     10 C          10.5849   40.6137    5.8820 C.3     1  UNL1        0.1406
     11 C          10.8534   39.9606    4.5329 C.3     1  UNL1        0.1760
     12 C           8.3237   39.6239    5.4114 C.3     1  UNL1        0.1640
     13 C           9.0721   40.7445    6.1220 C.3     1  UNL1        0.1022
     14 N          11.1165   39.7907    6.9502 N.2     1  UNL1       -0.2501
     15 O           9.6392   37.5567    4.2895 O.2     1  UNL1       -0.1729
     16 O           8.8649   39.3685    2.7850 O.2     1  UNL1       -0.1729
     17 S           9.4028   39.0348    4.1504 S.O2    1  UNL1       -0.0071
     18 S           8.8062   40.5748    7.9117 S.3     1  UNL1       -0.0773
     19 C          15.8169   38.2506   11.5756 C.3     1  UNL1        0.1116
     20 C          19.0914   38.8774    9.5827 C.3     1  UNL1        0.1148
     21 C          16.8695   38.9124   10.7415 C.2     1  UNL1        0.2301
     22 N          18.0836   38.2232   10.4016 N.am    1  UNL1       -0.2775
     23 O          16.6878   40.1037   10.3676 O.2     1  UNL1       -0.2745
     24 C          18.2464   36.8091   10.7037 C.3     1  UNL1        0.0935
     25 C          18.5977   36.0435    9.4375 C.3     1  UNL1        0.0215
     26 C          16.6110   34.7339    8.6961 C.3     1  UNL1        0.0001
     27 C          17.4116   36.0077    8.4888 C.3     1  UNL1        0.0018
@<TRIPOS>BOND
     1    26    27    1
     2    27    25    1
     3    25    24    1
     4    24    22    1
     5    20    22    1
     6    19    21    1
     7    19     1    1
     8     2     3   ar
     9     4     7    1
    10     4     5   ar
    11     9    18    1
    12    10    14    1
    13    10    11    1
    14    11    17    1
    15    13    12    1
    16    13    18    1
    17    13    10    1
    18     6     1   ar
    19    22    21   am
    20     7     9    1
    21    17    12    1
    22    21    23    2
    23     1     2   ar
    24     3     4   ar
    25     9    14    2
    26     5     6   ar
    27    17    15    2
    28    17    16    2
    29     7     8    1
@<TRIPOS>MOLECULE
MolPort-007-657-051 CSSS00025804467 ChemDiv-C685-0468 MCULE-4330609593 PubChem-20875034
 27 29 0 0 0
SMALL
GASTEIGER

@<TRIPOS>ATOM
      1 C          13.1013   40.5458    9.2906 C.ar    1  UNL1       -0.0130
      2 C          12.5137   41.6238    8.6214 C.ar    1  UNL1       -0.0025
      3 C          11.3868   42.2509    9.1582 C.ar    1  UNL1        0.0143
      4 C          10.8367   41.8077   10.3685 C.ar    1  UNL1        0.0497
      5 C          11.4351   40.7366   11.0394 C.ar    1  UNL1        0.0143
      6 C          12.5649   40.1112   10.5063 C.ar    1  UNL1       -0.0025
      7 N           9.6843   42.4315   10.9522 N.pl3   1  UNL1       -0.2933
      8 H           9.7579   42.6902   11.8992 H       1  UNL1        0.1541
      9 C           8.4372   42.7192   10.3064 C.2     1  UNL1        0.1550
     10 C           7.0060   43.7572    8.8249 C.3     1  UNL1        0.1406
     11 C           7.1585   44.0875    7.3463 C.3     1  UNL1        0.1760
     12 C           6.6719   41.4763    7.8249 C.3     1  UNL1        0.1640
     13 C           6.3358   42.3848    9.0007 C.3     1  UNL1        0.1022
     14 N           8.3083   43.6798    9.4567 N.2     1  UNL1       -0.2501
     15 O           8.5232   42.1817    5.9980 O.2     1  UNL1       -0.1729
     16 O           6.1410   42.5044    5.3924 O.2     1  UNL1       -0.1729
     17 S           7.1537   42.5383    6.5052 S.O2    1  UNL1       -0.0071
     18 S           7.0248   41.6524   10.5143 S.3     1  UNL1       -0.0773
     19 C          14.3157   39.8887    8.7277 C.3     1  UNL1        0.1116
     20 C          17.3189   42.3377    8.9915 C.3     1  UNL1        0.1148
     21 C          15.5568   40.5696    9.2149 C.2     1  UNL1        0.2301
     22 N          16.1183   41.6819    8.4992 N.am    1  UNL1       -0.2775
     23 O          16.1246   40.1279   10.2515 O.2     1  UNL1       -0.2745
     24 C          15.4023   42.2897    7.3877 C.3     1  UNL1        0.0935
     25 C          15.9516   43.6809    7.1131 C.3     1  UNL1        0.0215
     26 C          13.8838   43.8479    5.7319 C.3     1  UNL1        0.0001
     27 C          15.3427   44.2546    5.8450 C.3     1  UNL1        0.0018
@<TRIPOS>BOND
     1    26    27    1
     2    27    25    1
     3    25    24    1
     4    24    22    1
     5    20    22    1
     6    19    21    1
     7    19     1    1
     8     2     3   ar
     9     4     7    1
    10     4     5   ar
    11     9    18    1
    12    10    14    1
    13    10    11    1
    14    11    17    1
    15    13    12    1
    16    13    18    1
    17    13    10    1
    18     6     1   ar
    19    22    21   am
    20     7     9    1
    21    17    12    1
    22    21    23    2
    23     1     2   ar
    24     3     4   ar
    25     9    14    2
    26     5     6   ar
    27    17    15    2
    28    17    16    2
    29     7     8    1
@<TRIPOS>MOLECULE
MolPort-007-657-051 CSSS00025804467 ChemDiv-C685-0468 MCULE-4330609593 PubChem-20875034
 27 29 0 0 0
SMALL
GASTEIGER

@<TRIPOS>ATOM
      1 C           8.3371   40.4365    6.4491 C.ar    1  UNL1       -0.0130
      2 C           8.5161   39.2161    7.1080 C.ar    1  UNL1       -0.0025
      3 C           9.8009   38.7863    7.4483 C.ar    1  UNL1        0.0143
      4 C          10.9186   39.5712    7.1344 C.ar    1  UNL1        0.0497
      5 C          10.7329   40.7961    6.4858 C.ar    1  UNL1        0.0143
      6 C           9.4483   41.2297    6.1488 C.ar    1  UNL1       -0.0025
      7 N          12.2516   39.1644    7.4741 N.pl3   1  UNL1       -0.2933
      8 H          12.7305   38.6262    6.8031 H       1  UNL1        0.1541
      9 C          12.9623   39.4564    8.6843 C.2     1  UNL1        0.1550
     10 C          13.6365   39.1646   10.8709 C.3     1  UNL1        0.1406
     11 C          14.0639   37.9165   11.6313 C.3     1  UNL1        0.1760
     12 C          15.9438   38.8410    9.9297 C.3     1  UNL1        0.1640
     13 C          14.8604   39.8615   10.2546 C.3     1  UNL1        0.1022
     14 N          12.7545   38.8063    9.7778 N.2     1  UNL1       -0.2501
     15 O          15.4626   36.1939   10.0857 O.2     1  UNL1       -0.1729
     16 O          16.6702   37.2480   11.9768 O.2     1  UNL1       -0.1729
     17 S          15.6058   37.4305   10.9286 S.O2    1  UNL1       -0.0071
     18 S          14.3040   40.6293    8.7044 S.3     1  UNL1       -0.0773
     19 C           6.9643   40.9046    6.1031 C.3     1  UNL1        0.1116
     20 C           6.1162   43.9235    8.3952 C.3     1  UNL1        0.1148
     21 C           6.7465   42.3036    6.5897 C.2     1  UNL1        0.2301
     22 N           6.3138   42.5581    7.9360 N.am    1  UNL1       -0.2775
     23 O           6.9174   43.2600    5.7845 O.2     1  UNL1       -0.2745
     24 C           6.2487   41.4817    8.9130 C.3     1  UNL1        0.0935
     25 C           5.2565   41.8339   10.0103 C.3     1  UNL1        0.0215
     26 C           2.8880   41.3550    9.3999 C.3     1  UNL1        0.0001
     27 C           4.1375   40.8079   10.0679 C.3     1  UNL1        0.0018
@<TRIPOS>BOND
     1    26    27    1
     2    27    25    1
     3    25    24    1
     4    24    22    1
     5    20    22    1
     6    19    21    1
     7    19     1    1
     8     2     3   ar
     9     4     7    1
    10     4     5   ar
    11     9    18    1
    12    10    14    1
    13    10    11    1
    14    11    17    1
    15    13    12    1
    16    13    18    1
    17    13    10    1
    18     6     1   ar
    19    22    21   am
    20     7     9    1
    21    17    12    1
    22    21    23    2
    23     1     2   ar
    24     3     4   ar
    25     9    14    2
    26     5     6   ar
    27    17    15    2
    28    17    16    2
    29     7     8    1
@<TRIPOS>MOLECULE
MolPort-007-657-051 CSSS00025804467 ChemDiv-C685-0468 MCULE-4330609593 PubChem-20875034
 27 29 0 0 0
SMALL
GASTEIGER

@<TRIPOS>ATOM
      1 C          13.0369   41.4910    7.8884 C.ar    1  UNL1       -0.0130
      2 C          12.2788   42.4274    8.5982 C.ar    1  UNL1       -0.0025
      3 C          10.9915   42.1018    9.0318 C.ar    1  UNL1        0.0143
      4 C          10.4496   40.8380    8.7613 C.ar    1  UNL1        0.0497
      5 C          11.2165   39.9014    8.0612 C.ar    1  UNL1        0.0143
      6 C          12.5059   40.2238    7.6307 C.ar    1  UNL1       -0.0025
      7 N           9.1340   40.4671    9.1964 N.pl3   1  UNL1       -0.2933
      8 H           9.0818   39.8852    9.9889 H       1  UNL1        0.1541
      9 C           7.8870   40.8515    8.6030 C.2     1  UNL1        0.1550
     10 C           5.7548   41.7283    8.5284 C.3     1  UNL1        0.1406
     11 C           5.1704   42.9989    9.1307 C.3     1  UNL1        0.1760
     12 C           6.7058   43.4419    6.9557 C.3     1  UNL1        0.1640
     13 C           6.2544   41.9940    7.0990 C.3     1  UNL1        0.1022
     14 N           6.8969   41.2869    9.3042 N.2     1  UNL1       -0.2501
     15 O           6.9247   45.0567    9.1021 O.2     1  UNL1       -0.1729
     16 O           4.8920   45.2882    7.7021 O.2     1  UNL1       -0.1729
     17 S           5.9165   44.3334    8.2533 S.O2    1  UNL1       -0.0071
     18 S           7.6890   40.9107    6.8328 S.3     1  UNL1       -0.0773
     19 C          14.4184   41.8315    7.4423 C.3     1  UNL1        0.1116
     20 C          15.2701   45.1999    5.7058 C.3     1  UNL1        0.1148
     21 C          14.3948   42.9862    6.4896 C.2     1  UNL1        0.2301
     22 N          15.3001   44.0910    6.6458 N.am    1  UNL1       -0.2775
     23 O          13.5398   42.9901    5.5616 O.2     1  UNL1       -0.2745
     24 C          16.3797   44.0366    7.6199 C.3     1  UNL1        0.0935
     25 C          17.6532   43.5340    6.9580 C.3     1  UNL1        0.0215
     26 C          17.3702   42.0432    8.9352 C.3     1  UNL1        0.0001
     27 C          18.1747   42.2989    7.6726 C.3     1  UNL1        0.0018
@<TRIPOS>BOND
     1    26    27    1
     2    27    25    1
     3    25    24    1
     4    24    22    1
     5    20    22    1
     6    19    21    1
     7    19     1    1
     8     2     3   ar
     9     4     7    1
    10     4     5   ar
    11     9    18    1
    12    10    14    1
    13    10    11    1
    14    11    17    1
    15    13    12    1
    16    13    18    1
    17    13    10    1
    18     6     1   ar
    19    22    21   am
    20     7     9    1
    21    17    12    1
    22    21    23    2
    23     1     2   ar
    24     3     4   ar
    25     9    14    2
    26     5     6   ar
    27    17    15    2
    28    17    16    2
    29     7     8    1
@<TRIPOS>MOLECULE
MolPort-007-657-051 CSSS00025804467 ChemDiv-C685-0468 MCULE-4330609593 PubChem-20875034
 27 29 0 0 0
SMALL
GASTEIGER

@<TRIPOS>ATOM
      1 C           9.7630   42.3948   10.2755 C.ar    1  UNL1       -0.0130
      2 C           9.9909   41.1868   10.9419 C.ar    1  UNL1       -0.0025
      3 C          11.1561   40.4581   10.6914 C.ar    1  UNL1        0.0143
      4 C          12.1046   40.9293    9.7737 C.ar    1  UNL1        0.0497
      5 C          11.8770   42.1437    9.1187 C.ar    1  UNL1        0.0143
      6 C          10.7145   42.8760    9.3714 C.ar    1  UNL1       -0.0025
      7 N          13.3148   40.2109    9.4963 N.pl3   1  UNL1       -0.2933
      8 H          13.8925   40.5807    8.7900 H       1  UNL1        0.1541
      9 C          13.7746   39.0131   10.1358 C.2     1  UNL1        0.1550
     10 C          13.8768   36.7523   10.5818 C.3     1  UNL1        0.1406
     11 C          13.8956   35.5459    9.6529 C.3     1  UNL1        0.1760
     12 C          16.2430   36.8747    9.7448 C.3     1  UNL1        0.1640
     13 C          15.3111   37.2019   10.9046 C.3     1  UNL1        0.1022
     14 N          13.2148   37.8692    9.9372 N.2     1  UNL1       -0.2501
     15 O          15.2812   36.0153    7.3786 O.2     1  UNL1       -0.1729
     16 O          16.1979   34.3090    8.9257 O.2     1  UNL1       -0.1729
     17 S          15.4460   35.6081    8.8163 S.O2    1  UNL1       -0.0071
     18 S          15.2621   39.0059   11.1174 S.3     1  UNL1       -0.0773
     19 C           8.5285   43.1824   10.5572 C.3     1  UNL1        0.1116
     20 C           6.8220   43.5670    7.0893 C.3     1  UNL1        0.1148
     21 C           7.9882   43.7836    9.2970 C.2     1  UNL1        0.2301
     22 N           7.3496   42.9654    8.3033 N.am    1  UNL1       -0.2775
     23 O           8.1330   45.0222    9.1045 O.2     1  UNL1       -0.2745
     24 C           7.0504   41.5668    8.5709 C.3     1  UNL1        0.0935
     25 C           5.6499   41.4356    9.1490 C.3     1  UNL1        0.0215
     26 C           3.5221   42.6476    9.6129 C.3     1  UNL1        0.0001
     27 C           4.9958   42.8006    9.2788 C.3     1  UNL1        0.0018
@<TRIPOS>BOND
     1    26    27    1
     2    27    25    1
     3    25    24    1
     4    24    22    1
     5    20    22    1
     6    19    21    1
     7    19     1    1
     8     2     3   ar
     9     4     7    1
    10     4     5   ar
    11     9    18    1
    12    10    14    1
    13    10    11    1
    14    11    17    1
    15    13    12    1
    16    13    18    1
    17    13    10    1
    18     6     1   ar
    19    22    21   am
    20     7     9    1
    21    17    12    1
    22    21    23    2
    23     1     2   ar
    24     3     4   ar
    25     9    14    2
    26     5     6   ar
    27    17    15    2
    28    17    16    2
    29     7     8    1
@<TRIPOS>MOLECULE
MolPort-007-657-051 CSSS00025804467 ChemDiv-C685-0468 MCULE-4330609593 PubChem-20875034
 27 29 0 0 0
SMALL
GASTEIGER

@<TRIPOS>ATOM
      1 C           9.9882   42.4193   10.4436 C.ar    1  UNL1       -0.0130
      2 C          10.3862   41.3495   11.2513 C.ar    1  UNL1       -0.0025
      3 C          11.5250   40.6102   10.9228 C.ar    1  UNL1        0.0143
      4 C          12.2771   40.9328    9.7852 C.ar    1  UNL1        0.0497
      5 C          11.8811   42.0108    8.9874 C.ar    1  UNL1        0.0143
      6 C          10.7451   42.7542    9.3170 C.ar    1  UNL1       -0.0025
      7 N          13.4552   40.1998    9.4210 N.pl3   1  UNL1       -0.2933
      8 H          13.9670   40.5449    8.6540 H       1  UNL1        0.1541
      9 C          13.9682   39.0194   10.0523 C.2     1  UNL1        0.1550
     10 C          14.1129   36.7709   10.5463 C.3     1  UNL1        0.1406
     11 C          14.0619   35.5411    9.6499 C.3     1  UNL1        0.1760
     12 C          16.4048   36.8747    9.5212 C.3     1  UNL1        0.1640
     13 C          15.5667   37.2304   10.7427 C.3     1  UNL1        0.1022
     14 N          13.3982   37.8700    9.9280 N.2     1  UNL1       -0.2501
     15 O          15.2611   35.9536    7.2615 O.2     1  UNL1       -0.1729
     16 O          16.3033   34.2887    8.7740 O.2     1  UNL1       -0.1729
     17 S          15.5408   35.5837    8.6915 S.O2    1  UNL1       -0.0071
     18 S          15.5289   39.0393   10.9125 S.3     1  UNL1       -0.0773
     19 C           8.7837   43.2207   10.8048 C.3     1  UNL1        0.1116
     20 C           5.6452   40.9778   11.2586 C.3     1  UNL1        0.1148
     21 C           7.7369   42.3482   11.4249 C.2     1  UNL1        0.2301
     22 N           6.6481   41.8316   10.6426 N.am    1  UNL1       -0.2775
     23 O           7.8075   42.0996   12.6599 O.2     1  UNL1       -0.2745
     24 C           6.6291   41.9914    9.1963 C.3     1  UNL1        0.0935
     25 C           5.4527   42.8626    8.7844 C.3     1  UNL1        0.0215
     26 C           4.7550   44.9502    7.6152 C.3     1  UNL1        0.0001
     27 C           5.9324   44.0701    7.9971 C.3     1  UNL1        0.0018
@<TRIPOS>BOND
     1    26    27    1
     2    27    25    1
     3    25    24    1
     4    24    22    1
     5    20    22    1
     6    19    21    1
     7    19     1    1
     8     2     3   ar
     9     4     7    1
    10     4     5   ar
    11     9    18    1
    12    10    14    1
    13    10    11    1
    14    11    17    1
    15    13    12    1
    16    13    18    1
    17    13    10    1
    18     6     1   ar
    19    22    21   am
    20     7     9    1
    21    17    12    1
    22    21    23    2
    23     1     2   ar
    24     3     4   ar
    25     9    14    2
    26     5     6   ar
    27    17    15    2
    28    17    16    2
    29     7     8    1
