@<TRIPOS>MOLECULE
MolPort-039-210-472 CSSS03437008378 MCULE-4993795903 PubChem-121017025
 25 27 0 0 0
SMALL
GASTEIGER

@<TRIPOS>ATOM
      1 N          11.8304   40.3537    9.2324 N.pl3   1  UNL1       -0.2119
      2 H          11.0720   40.6478    9.7871 H       1  UNL1        0.1738
      3 C          12.8660   39.5815    9.8399 C.ar    1  UNL1        0.1043
      4 C          13.5902   38.5938    9.2135 C.ar    1  UNL1        0.1125
      5 C          13.3161   39.6808   11.1431 C.ar    1  UNL1        0.1375
      6 N          14.4488   38.1327   10.1398 N.ar    1  UNL1       -0.2456
      7 N          14.2947   38.7667   11.2920 N.ar    1  UNL1       -0.1662
      8 C          15.4046   37.0569    9.9308 C.3     1  UNL1        0.1569
      9 C          16.8065   37.5105   10.3057 C.3     1  UNL1        0.1395
     10 C          17.8375   36.4707    9.8556 C.3     1  UNL1        0.0317
     11 C          19.2295   36.9443   10.2647 C.3     1  UNL1        0.0051
     12 C          19.4526   38.3860    9.8152 C.3     1  UNL1        0.0322
     13 C          18.2641   39.2368   10.2649 C.3     1  UNL1        0.1421
     14 O          17.0777   38.7458    9.6888 O.3     1  UNL1       -0.3542
     15 S          11.8565   40.7933    7.5574 S.O2    1  UNL1        0.0737
     16 O          11.9246   39.5549    6.7090 O.2     1  UNL1       -0.1499
     17 O          10.6122   41.5714    7.2326 O.2     1  UNL1       -0.1499
     18 C          16.6975   44.2330    6.4131 C.3     1  UNL1        0.0307
     19 C          15.5190   43.3712    6.7174 C.ar    1  UNL1       -0.0257
     20 C          15.5777   42.3625    7.6976 C.ar    1  UNL1       -0.0245
     21 C          16.8213   42.1052    8.4794 C.3     1  UNL1        0.0307
     22 C          14.4492   41.5766    7.9518 C.ar    1  UNL1        0.0156
     23 C          13.2643   41.7890    7.2401 C.ar    1  UNL1        0.1248
     24 C          13.2091   42.7892    6.2647 C.ar    1  UNL1        0.0198
     25 C          14.3330   43.5779    6.0056 C.ar    1  UNL1       -0.0032
@<TRIPOS>BOND
     1    18    19    1
     2    20    22   ar
     3    21    20    1
     4    23    24   ar
     5    25    19   ar
     6     4     6   ar
     7     8     6    1
     8     9     8    1
     9     9    10    1
    10     9    14    1
    11    10    11    1
    12    11    12    1
    13    12    13    1
    14    13    14    1
    15     5     3   ar
    16    15    23    1
    17    15     1    1
    18     1     3    1
    19     6     7   ar
    20    19    20   ar
    21    22    23   ar
    22    24    25   ar
    23     3     4   ar
    24     5     7   ar
    25    15    16    2
    26    15    17    2
    27     1     2    1
@<TRIPOS>MOLECULE
MolPort-039-210-472 CSSS03437008378 MCULE-4993795903 PubChem-121017025
 25 27 0 0 0
SMALL
GASTEIGER

@<TRIPOS>ATOM
      1 N           9.2861   42.0502    8.8653 N.pl3   1  UNL1       -0.2119
      2 H           9.4106   41.8022    9.8098 H       1  UNL1        0.1738
      3 C          10.3693   41.8552    7.9561 C.ar    1  UNL1        0.1043
      4 C          11.6962   41.7726    8.3094 C.ar    1  UNL1        0.1125
      5 C          10.2831   41.7219    6.5830 C.ar    1  UNL1        0.1375
      6 N          12.3660   41.5899    7.1580 N.ar    1  UNL1       -0.2456
      7 N          11.5396   41.5614    6.1237 N.ar    1  UNL1       -0.1662
      8 C          13.8106   41.4710    7.0417 C.3     1  UNL1        0.1569
      9 C          14.4555   42.8470    6.9938 C.3     1  UNL1        0.1395
     10 C          15.9130   42.7652    7.4582 C.3     1  UNL1        0.0317
     11 C          16.5246   44.1630    7.4190 C.3     1  UNL1        0.0051
     12 C          16.2604   44.8197    6.0665 C.3     1  UNL1        0.0322
     13 C          14.7722   44.6978    5.7365 C.3     1  UNL1        0.1421
     14 O          14.4039   43.3408    5.6772 O.3     1  UNL1       -0.3542
     15 S           7.7615   42.7064    8.3708 S.O2    1  UNL1        0.0737
     16 O           7.7949   44.2047    8.4794 O.2     1  UNL1       -0.1499
     17 O           7.4873   42.2997    6.9500 O.2     1  UNL1       -0.1499
     18 C           3.4291   40.5158   11.9777 C.3     1  UNL1        0.0307
     19 C           4.4768   41.0612   11.0670 C.ar    1  UNL1       -0.0257
     20 C           4.1732   41.4637    9.7528 C.ar    1  UNL1       -0.0245
     21 C           2.7894   41.3641    9.2058 C.3     1  UNL1        0.0307
     22 C           5.1857   41.9699    8.9316 C.ar    1  UNL1        0.0156
     23 C           6.4953   42.0800    9.4095 C.ar    1  UNL1        0.1248
     24 C           6.7954   41.6765   10.7141 C.ar    1  UNL1        0.0198
     25 C           5.7885   41.1698   11.5397 C.ar    1  UNL1       -0.0032
@<TRIPOS>BOND
     1    18    19    1
     2    20    22   ar
     3    21    20    1
     4    23    24   ar
     5    25    19   ar
     6     4     6   ar
     7     8     6    1
     8     9     8    1
     9     9    10    1
    10     9    14    1
    11    10    11    1
    12    11    12    1
    13    12    13    1
    14    13    14    1
    15     5     3   ar
    16    15    23    1
    17    15     1    1
    18     1     3    1
    19     6     7   ar
    20    19    20   ar
    21    22    23   ar
    22    24    25   ar
    23     3     4   ar
    24     5     7   ar
    25    15    16    2
    26    15    17    2
    27     1     2    1
@<TRIPOS>MOLECULE
MolPort-039-210-472 CSSS03437008378 MCULE-4993795903 PubChem-121017025
 25 27 0 0 0
SMALL
GASTEIGER

@<TRIPOS>ATOM
      1 N          11.8324   41.1956    5.5873 N.pl3   1  UNL1       -0.2119
      2 H          12.3588   41.5776    4.8482 H       1  UNL1        0.1738
      3 C          10.5593   40.6188    5.2965 C.ar    1  UNL1        0.1043
      4 C           9.4821   40.6024    6.1519 C.ar    1  UNL1        0.1125
      5 C          10.1876   39.9805    4.1282 C.ar    1  UNL1        0.1375
      6 N           8.5015   39.9680    5.4858 N.ar    1  UNL1       -0.2456
      7 N           8.9076   39.5896    4.2836 N.ar    1  UNL1       -0.1662
      8 C           7.1742   39.6950    6.0136 C.3     1  UNL1        0.1569
      9 C           6.5352   40.9730    6.5334 C.3     1  UNL1        0.1395
     10 C           6.6911   41.0620    8.0547 C.3     1  UNL1        0.0317
     11 C           6.0222   42.3424    8.5470 C.3     1  UNL1        0.0051
     12 C           6.4985   43.5387    7.7270 C.3     1  UNL1        0.0322
     13 C           6.3654   43.2072    6.2401 C.3     1  UNL1        0.1421
     14 O           7.1522   42.0829    5.9273 O.3     1  UNL1       -0.3542
     15 S          12.4867   41.2491    7.1899 S.O2    1  UNL1        0.0737
     16 O          11.5535   42.0041    8.0939 O.2     1  UNL1       -0.1499
     17 O          12.6686   39.8452    7.6953 O.2     1  UNL1       -0.1499
     18 C          17.8399   44.0585    7.0223 C.3     1  UNL1        0.0307
     19 C          16.5297   43.3489    7.0866 C.ar    1  UNL1       -0.0257
     20 C          16.3123   42.2835    7.9805 C.ar    1  UNL1       -0.0245
     21 C          17.3814   41.8111    8.9068 C.3     1  UNL1        0.0307
     22 C          15.0684   41.6451    8.0085 C.ar    1  UNL1        0.0156
     23 C          14.0406   42.0607    7.1561 C.ar    1  UNL1        0.1248
     24 C          14.2597   43.1170    6.2666 C.ar    1  UNL1        0.0198
     25 C          15.5002   43.7590    6.2334 C.ar    1  UNL1       -0.0032
@<TRIPOS>BOND
     1    18    19    1
     2    20    22   ar
     3    21    20    1
     4    23    24   ar
     5    25    19   ar
     6     4     6   ar
     7     8     6    1
     8     9     8    1
     9     9    10    1
    10     9    14    1
    11    10    11    1
    12    11    12    1
    13    12    13    1
    14    13    14    1
    15     5     3   ar
    16    15    23    1
    17    15     1    1
    18     1     3    1
    19     6     7   ar
    20    19    20   ar
    21    22    23   ar
    22    24    25   ar
    23     3     4   ar
    24     5     7   ar
    25    15    16    2
    26    15    17    2
    27     1     2    1
@<TRIPOS>MOLECULE
MolPort-039-210-472 CSSS03437008378 MCULE-4993795903 PubChem-121017025
 25 27 0 0 0
SMALL
GASTEIGER

@<TRIPOS>ATOM
      1 N          11.1325   41.5984    8.3813 N.pl3   1  UNL1       -0.2119
      2 H          10.3962   42.2492    8.4410 H       1  UNL1        0.1738
      3 C          11.5660   40.9415    9.5723 C.ar    1  UNL1        0.1043
      4 C          12.8361   40.4627    9.7965 C.ar    1  UNL1        0.1125
      5 C          10.8021   40.6682   10.6913 C.ar    1  UNL1        0.1375
      6 N          12.8071   39.9250   11.0285 N.ar    1  UNL1       -0.2456
      7 N          11.6041   40.0366   11.5706 N.ar    1  UNL1       -0.1662
      8 C          13.9306   39.2727   11.6819 C.3     1  UNL1        0.1569
      9 C          14.1401   37.8782   11.1132 C.3     1  UNL1        0.1395
     10 C          12.7894   37.2095   10.8396 C.3     1  UNL1        0.0317
     11 C          13.0334   35.8065   10.2909 C.3     1  UNL1        0.0051
     12 C          14.0330   35.8543    9.1381 C.3     1  UNL1        0.0322
     13 C          15.2587   36.6573    9.5754 C.3     1  UNL1        0.1421
     14 O          14.8763   37.9679    9.9174 O.3     1  UNL1       -0.3542
     15 S          11.8518   41.2948    6.8353 S.O2    1  UNL1        0.0737
     16 O          12.1300   39.8258    6.6850 O.2     1  UNL1       -0.1499
     17 O          10.9119   41.7534    5.7557 O.2     1  UNL1       -0.1499
     18 C          17.0379   44.3691    6.3555 C.3     1  UNL1        0.0307
     19 C          15.7709   43.5952    6.4965 C.ar    1  UNL1       -0.0257
     20 C          15.6518   42.5392    7.4197 C.ar    1  UNL1       -0.0245
     21 C          16.7868   42.1417    8.3016 C.3     1  UNL1        0.0307
     22 C          14.4454   41.8390    7.5200 C.ar    1  UNL1        0.0156
     23 C          13.3581   42.1836    6.7109 C.ar    1  UNL1        0.1248
     24 C          13.4795   43.2306    5.7922 C.ar    1  UNL1        0.0198
     25 C          14.6821   43.9342    5.6868 C.ar    1  UNL1       -0.0032
@<TRIPOS>BOND
     1    18    19    1
     2    20    22   ar
     3    21    20    1
     4    23    24   ar
     5    25    19   ar
     6     4     6   ar
     7     8     6    1
     8     9     8    1
     9     9    10    1
    10     9    14    1
    11    10    11    1
    12    11    12    1
    13    12    13    1
    14    13    14    1
    15     5     3   ar
    16    15    23    1
    17    15     1    1
    18     1     3    1
    19     6     7   ar
    20    19    20   ar
    21    22    23   ar
    22    24    25   ar
    23     3     4   ar
    24     5     7   ar
    25    15    16    2
    26    15    17    2
    27     1     2    1
@<TRIPOS>MOLECULE
MolPort-039-210-472 CSSS03437008378 MCULE-4993795903 PubChem-121017025
 25 27 0 0 0
SMALL
GASTEIGER

@<TRIPOS>ATOM
      1 N          11.9600   39.9464    9.0641 N.pl3   1  UNL1       -0.2119
      2 H          11.5472   39.3797    8.3729 H       1  UNL1        0.1738
      3 C          11.1240   40.8153    9.8284 C.ar    1  UNL1        0.1043
      4 C          10.1109   40.4077   10.6650 C.ar    1  UNL1        0.1125
      5 C          11.1767   42.1961    9.8615 C.ar    1  UNL1        0.1375
      6 N           9.5893   41.5362   11.1770 N.ar    1  UNL1       -0.2456
      7 N          10.2101   42.6066   10.7057 N.ar    1  UNL1       -0.1662
      8 C           8.4686   41.5937   12.1020 C.3     1  UNL1        0.1569
      9 C           7.1707   41.8430   11.3503 C.3     1  UNL1        0.1395
     10 C           7.3742   41.6088    9.8502 C.3     1  UNL1        0.0317
     11 C           6.0617   41.8873    9.1229 C.3     1  UNL1        0.0051
     12 C           4.9137   41.1387    9.7951 C.3     1  UNL1        0.0322
     13 C           4.9524   41.4149   11.2987 C.3     1  UNL1        0.1421
     14 O           6.1762   40.9739   11.8358 O.3     1  UNL1       -0.3542
     15 S          13.6723   39.8506    9.3057 S.O2    1  UNL1        0.0737
     16 O          13.9898   40.0319   10.7632 O.2     1  UNL1       -0.1499
     17 O          14.1621   38.5096    8.8356 O.2     1  UNL1       -0.1499
     18 C          16.3642   44.1970    6.0747 C.3     1  UNL1        0.0307
     19 C          15.7249   43.1233    6.8888 C.ar    1  UNL1       -0.0257
     20 C          16.4190   42.4748    7.9276 C.ar    1  UNL1       -0.0245
     21 C          17.8279   42.8286    8.2650 C.3     1  UNL1        0.0307
     22 C          15.7821   41.4729    8.6668 C.ar    1  UNL1        0.0156
     23 C          14.4610   41.1145    8.3811 C.ar    1  UNL1        0.1248
     24 C          13.7744   41.7576    7.3467 C.ar    1  UNL1        0.0198
     25 C          14.4049   42.7593    6.6042 C.ar    1  UNL1       -0.0032
@<TRIPOS>BOND
     1    18    19    1
     2    20    22   ar
     3    21    20    1
     4    23    24   ar
     5    25    19   ar
     6     4     6   ar
     7     8     6    1
     8     9     8    1
     9     9    10    1
    10     9    14    1
    11    10    11    1
    12    11    12    1
    13    12    13    1
    14    13    14    1
    15     5     3   ar
    16    15    23    1
    17    15     1    1
    18     1     3    1
    19     6     7   ar
    20    19    20   ar
    21    22    23   ar
    22    24    25   ar
    23     3     4   ar
    24     5     7   ar
    25    15    16    2
    26    15    17    2
    27     1     2    1
@<TRIPOS>MOLECULE
MolPort-039-210-472 CSSS03437008378 MCULE-4993795903 PubChem-121017025
 25 27 0 0 0
SMALL
GASTEIGER

@<TRIPOS>ATOM
      1 N          13.6831   39.6393   10.6362 N.pl3   1  UNL1       -0.2119
      2 H          13.2827   40.2381   11.3073 H       1  UNL1        0.1738
      3 C          14.8904   38.9513   10.9637 C.ar    1  UNL1        0.1043
      4 C          16.1493   39.3158   10.5456 C.ar    1  UNL1        0.1125
      5 C          15.0100   37.8141   11.7402 C.ar    1  UNL1        0.1375
      6 N          16.9839   38.4052   11.0766 N.ar    1  UNL1       -0.2456
      7 N          16.3206   37.5048   11.7856 N.ar    1  UNL1       -0.1662
      8 C          18.4246   38.3781   10.8805 C.3     1  UNL1        0.1569
      9 C          18.8196   37.2027   10.0005 C.3     1  UNL1        0.1395
     10 C          19.2287   36.0070   10.8663 C.3     1  UNL1        0.0317
     11 C          19.6391   34.8533    9.9554 C.3     1  UNL1        0.0051
     12 C          18.5702   34.6104    8.8929 C.3     1  UNL1        0.0322
     13 C          18.2229   35.9407    8.2234 C.3     1  UNL1        0.1421
     14 O          17.7317   36.8462    9.1824 O.3     1  UNL1       -0.3542
     15 S          12.8957   39.4613    9.1040 S.O2    1  UNL1        0.0737
     16 O          13.2915   38.1533    8.4792 O.2     1  UNL1       -0.1499
     17 O          11.4070   39.5048    9.3068 O.2     1  UNL1       -0.1499
     18 C          14.5263   43.9733    5.4216 C.3     1  UNL1        0.0307
     19 C          14.1503   42.8637    6.3445 C.ar    1  UNL1       -0.0257
     20 C          15.0355   42.3973    7.3345 C.ar    1  UNL1       -0.0245
     21 C          16.3933   42.9889    7.5091 C.3     1  UNL1        0.0307
     22 C          14.6431   41.3543    8.1794 C.ar    1  UNL1        0.0156
     23 C          13.3771   40.7752    8.0474 C.ar    1  UNL1        0.1248
     24 C          12.5005   41.2377    7.0612 C.ar    1  UNL1        0.0198
     25 C          12.8864   42.2793    6.2136 C.ar    1  UNL1       -0.0032
@<TRIPOS>BOND
     1    18    19    1
     2    20    22   ar
     3    21    20    1
     4    23    24   ar
     5    25    19   ar
     6     4     6   ar
     7     8     6    1
     8     9     8    1
     9     9    10    1
    10     9    14    1
    11    10    11    1
    12    11    12    1
    13    12    13    1
    14    13    14    1
    15     5     3   ar
    16    15    23    1
    17    15     1    1
    18     1     3    1
    19     6     7   ar
    20    19    20   ar
    21    22    23   ar
    22    24    25   ar
    23     3     4   ar
    24     5     7   ar
    25    15    16    2
    26    15    17    2
    27     1     2    1
@<TRIPOS>MOLECULE
MolPort-039-210-472 CSSS03437008378 MCULE-4993795903 PubChem-121017025
 25 27 0 0 0
SMALL
GASTEIGER

@<TRIPOS>ATOM
      1 N          11.6489   39.3342    7.2667 N.pl3   1  UNL1       -0.2119
      2 H          11.5488   38.8951    6.3912 H       1  UNL1        0.1738
      3 C          11.8996   38.5247    8.4156 C.ar    1  UNL1        0.1043
      4 C          13.1338   38.3208    8.9880 C.ar    1  UNL1        0.1125
      5 C          10.9671   37.8094    9.1431 C.ar    1  UNL1        0.1375
      6 N          12.9165   37.5034   10.0332 N.ar    1  UNL1       -0.2456
      7 N          11.6345   37.1884   10.1353 N.ar    1  UNL1       -0.1662
      8 C          13.9471   36.9954   10.9246 C.3     1  UNL1        0.1569
      9 C          15.3035   37.5738   10.5540 C.3     1  UNL1        0.1395
     10 C          15.7587   38.5790   11.6165 C.3     1  UNL1        0.0317
     11 C          17.1104   39.1562   11.2055 C.3     1  UNL1        0.0051
     12 C          18.0804   38.0328   10.8486 C.3     1  UNL1        0.0322
     13 C          17.3986   37.0802    9.8657 C.3     1  UNL1        0.1421
     14 O          16.2433   36.5314   10.4531 O.3     1  UNL1       -0.3542
     15 S          11.5140   41.0586    7.3535 S.O2    1  UNL1        0.0737
     16 O          10.6882   41.5614    6.2032 O.2     1  UNL1       -0.1499
     17 O          10.8663   41.4374    8.6560 O.2     1  UNL1       -0.1499
     18 C          17.0395   43.5063    7.1195 C.3     1  UNL1        0.0307
     19 C          15.6684   42.9205    7.1544 C.ar    1  UNL1       -0.0257
     20 C          14.6427   43.3963    6.3160 C.ar    1  UNL1       -0.0245
     21 C          14.8759   44.5100    5.3521 C.3     1  UNL1        0.0307
     22 C          13.3707   42.8187    6.3808 C.ar    1  UNL1        0.0156
     23 C          13.1139   41.7713    7.2709 C.ar    1  UNL1        0.1248
     24 C          14.1332   41.3024    8.1052 C.ar    1  UNL1        0.0198
     25 C          15.4063   41.8751    8.0457 C.ar    1  UNL1       -0.0032
@<TRIPOS>BOND
     1    18    19    1
     2    20    22   ar
     3    21    20    1
     4    23    24   ar
     5    25    19   ar
     6     4     6   ar
     7     8     6    1
     8     9     8    1
     9     9    10    1
    10     9    14    1
    11    10    11    1
    12    11    12    1
    13    12    13    1
    14    13    14    1
    15     5     3   ar
    16    15    23    1
    17    15     1    1
    18     1     3    1
    19     6     7   ar
    20    19    20   ar
    21    22    23   ar
    22    24    25   ar
    23     3     4   ar
    24     5     7   ar
    25    15    16    2
    26    15    17    2
    27     1     2    1
@<TRIPOS>MOLECULE
MolPort-039-210-472 CSSS03437008378 MCULE-4993795903 PubChem-121017025
 25 27 0 0 0
SMALL
GASTEIGER

@<TRIPOS>ATOM
      1 N          12.0614   39.2254    7.2129 N.pl3   1  UNL1       -0.2119
      2 H          12.4469   38.3879    6.8675 H       1  UNL1        0.1738
      3 C          10.9344   39.7897    6.5426 C.ar    1  UNL1        0.1043
      4 C           9.6421   39.7750    7.0140 C.ar    1  UNL1        0.1125
      5 C          10.9367   40.4356    5.3206 C.ar    1  UNL1        0.1375
      6 N           8.9098   40.4069    6.0801 N.ar    1  UNL1       -0.2456
      7 N           9.6650   40.8016    5.0666 N.ar    1  UNL1       -0.1662
      8 C           7.4711   40.6095    6.1429 C.3     1  UNL1        0.1569
      9 C           7.1315   41.7081    7.1377 C.3     1  UNL1        0.1395
     10 C           6.7631   42.9975    6.3973 C.3     1  UNL1        0.0317
     11 C           6.4489   44.0844    7.4216 C.3     1  UNL1        0.0051
     12 C           5.4528   43.5664    8.4559 C.3     1  UNL1        0.0322
     13 C           5.9461   42.2217    8.9918 C.3     1  UNL1        0.1421
     14 O           6.0503   41.2948    7.9379 O.3     1  UNL1       -0.3542
     15 S          12.7769   39.9570    8.6101 S.O2    1  UNL1        0.0737
     16 O          11.7257   40.6936    9.3914 O.2     1  UNL1       -0.1499
     17 O          13.3969   38.8867    9.4641 O.2     1  UNL1       -0.1499
     18 C          17.0760   43.8559    6.9090 C.3     1  UNL1        0.0307
     19 C          15.9979   42.9053    7.3069 C.ar    1  UNL1       -0.0257
     20 C          14.7335   42.9250    6.6885 C.ar    1  UNL1       -0.0245
     21 C          14.4092   43.8978    5.6057 C.3     1  UNL1        0.0307
     22 C          13.7504   42.0158    7.0919 C.ar    1  UNL1        0.0156
     23 C          14.0176   41.0874    8.1029 C.ar    1  UNL1        0.1248
     24 C          15.2731   41.0716    8.7181 C.ar    1  UNL1        0.0198
     25 C          16.2597   41.9773    8.3200 C.ar    1  UNL1       -0.0032
@<TRIPOS>BOND
     1    18    19    1
     2    20    22   ar
     3    21    20    1
     4    23    24   ar
     5    25    19   ar
     6     4     6   ar
     7     8     6    1
     8     9     8    1
     9     9    10    1
    10     9    14    1
    11    10    11    1
    12    11    12    1
    13    12    13    1
    14    13    14    1
    15     5     3   ar
    16    15    23    1
    17    15     1    1
    18     1     3    1
    19     6     7   ar
    20    19    20   ar
    21    22    23   ar
    22    24    25   ar
    23     3     4   ar
    24     5     7   ar
    25    15    16    2
    26    15    17    2
    27     1     2    1
@<TRIPOS>MOLECULE
MolPort-039-210-472 CSSS03437008378 MCULE-4993795903 PubChem-121017025
 25 27 0 0 0
SMALL
GASTEIGER

@<TRIPOS>ATOM
      1 N          11.5792   39.5630    6.2953 N.pl3   1  UNL1       -0.2119
      2 H          12.2075   39.1934    5.6335 H       1  UNL1        0.1738
      3 C          10.1819   39.5376    6.0038 C.ar    1  UNL1        0.1043
      4 C           9.1976   40.0898    6.7902 C.ar    1  UNL1        0.1125
      5 C           9.5768   38.9604    4.9033 C.ar    1  UNL1        0.1375
      6 N           8.0415   39.8392    6.1510 N.ar    1  UNL1       -0.2456
      7 N           8.2512   39.1656    5.0304 N.ar    1  UNL1       -0.1662
      8 C           6.7225   40.2208    6.6299 C.3     1  UNL1        0.1569
      9 C           6.7812   41.5670    7.3341 C.3     1  UNL1        0.1395
     10 C           6.5925   42.7022    6.3230 C.3     1  UNL1        0.0317
     11 C           6.6777   44.0379    7.0563 C.3     1  UNL1        0.0051
     12 C           5.7604   44.0325    8.2765 C.3     1  UNL1        0.0322
     13 C           6.0268   42.7677    9.0937 C.3     1  UNL1        0.1421
     14 O           5.7692   41.6275    8.3100 O.3     1  UNL1       -0.3542
     15 S          12.2118   40.2189    7.7680 S.O2    1  UNL1        0.0737
     16 O          11.1021   40.8514    8.5595 O.2     1  UNL1       -0.1499
     17 O          12.8483   39.1154    8.5658 O.2     1  UNL1       -0.1499
     18 C          16.3543   44.4144    6.4208 C.3     1  UNL1        0.0307
     19 C          15.3513   43.3687    6.7740 C.ar    1  UNL1       -0.0257
     20 C          15.6317   42.3713    7.7270 C.ar    1  UNL1       -0.0245
     21 C          16.9455   42.3106    8.4299 C.3     1  UNL1        0.0307
     22 C          14.6627   41.4092    8.0288 C.ar    1  UNL1        0.0156
     23 C          13.4182   41.4344    7.3916 C.ar    1  UNL1        0.1248
     24 C          13.1429   42.4239    6.4429 C.ar    1  UNL1        0.0198
     25 C          14.1067   43.3880    6.1365 C.ar    1  UNL1       -0.0032
@<TRIPOS>BOND
     1    18    19    1
     2    20    22   ar
     3    21    20    1
     4    23    24   ar
     5    25    19   ar
     6     4     6   ar
     7     8     6    1
     8     9     8    1
     9     9    10    1
    10     9    14    1
    11    10    11    1
    12    11    12    1
    13    12    13    1
    14    13    14    1
    15     5     3   ar
    16    15    23    1
    17    15     1    1
    18     1     3    1
    19     6     7   ar
    20    19    20   ar
    21    22    23   ar
    22    24    25   ar
    23     3     4   ar
    24     5     7   ar
    25    15    16    2
    26    15    17    2
    27     1     2    1
@<TRIPOS>MOLECULE
MolPort-039-210-472 CSSS03437008378 MCULE-4993795903 PubChem-121017025
 25 27 0 0 0
SMALL
GASTEIGER

@<TRIPOS>ATOM
      1 N          10.9202   41.9826    8.0538 N.pl3   1  UNL1       -0.2119
      2 H          11.2566   42.6794    8.6624 H       1  UNL1        0.1738
      3 C           9.5186   41.7126    8.0275 C.ar    1  UNL1        0.1043
      4 C           8.5266   42.6642    8.0813 C.ar    1  UNL1        0.1125
      5 C           8.9165   40.4709    7.9503 C.ar    1  UNL1        0.1375
      6 N           7.3689   41.9823    8.0313 N.ar    1  UNL1       -0.2456
      7 N           7.5852   40.6780    7.9571 N.ar    1  UNL1       -0.1662
      8 C           6.0443   42.5801    8.0846 C.3     1  UNL1        0.1569
      9 C           5.4284   42.3867    9.4612 C.3     1  UNL1        0.1395
     10 C           3.8998   42.4136    9.3659 C.3     1  UNL1        0.0317
     11 C           3.3131   42.2386   10.7639 C.3     1  UNL1        0.0051
     12 C           3.9465   41.0355   11.4580 C.3     1  UNL1        0.0322
     13 C           5.4680   41.1406   11.3460 C.3     1  UNL1        0.1421
     14 O           5.8493   41.1530    9.9913 O.3     1  UNL1       -0.3542
     15 S          12.0516   41.1316    7.0561 S.O2    1  UNL1        0.0737
     16 O          12.2785   39.7528    7.6089 O.2     1  UNL1       -0.1499
     17 O          11.5062   41.0420    5.6583 O.2     1  UNL1       -0.1499
     18 C          17.2942   44.1440    6.9210 C.3     1  UNL1        0.0307
     19 C          16.0120   43.3841    6.9768 C.ar    1  UNL1       -0.0257
     20 C          15.8409   42.2914    7.8475 C.ar    1  UNL1       -0.0245
     21 C          16.9331   41.8389    8.7564 C.3     1  UNL1        0.0307
     22 C          14.6220   41.6061    7.8682 C.ar    1  UNL1        0.0156
     23 C          13.5736   42.0017    7.0316 C.ar    1  UNL1        0.1248
     24 C          13.7468   43.0854    6.1652 C.ar    1  UNL1        0.0198
     25 C          14.9621   43.7743    6.1393 C.ar    1  UNL1       -0.0032
@<TRIPOS>BOND
     1    18    19    1
     2    20    22   ar
     3    21    20    1
     4    23    24   ar
     5    25    19   ar
     6     4     6   ar
     7     8     6    1
     8     9     8    1
     9     9    10    1
    10     9    14    1
    11    10    11    1
    12    11    12    1
    13    12    13    1
    14    13    14    1
    15     5     3   ar
    16    15    23    1
    17    15     1    1
    18     1     3    1
    19     6     7   ar
    20    19    20   ar
    21    22    23   ar
    22    24    25   ar
    23     3     4   ar
    24     5     7   ar
    25    15    16    2
    26    15    17    2
    27     1     2    1
