@<TRIPOS>MOLECULE
MolPort-020-298-667 CHEMBL3450043 MCULE-7664358719 PubChem-110269812
 26 28 0 0 0
SMALL
GASTEIGER

@<TRIPOS>ATOM
      1 C          10.6236   41.2793    6.4192 C.ar    1  UNL1        0.1339
      2 C           8.3137   41.3887    6.9955 C.ar    1  UNL1        0.0614
      3 C           8.3654   40.0942    7.5295 C.ar    1  UNL1        0.0149
      4 C           9.5697   39.3923    7.5019 C.ar    1  UNL1        0.0041
      5 C          10.7043   39.9831    6.9460 C.ar    1  UNL1        0.0345
      6 N           9.4352   41.9420    6.4590 N.ar    1  UNL1       -0.2348
      7 C           7.0423   42.1761    7.0041 C.3     1  UNL1        0.0563
      8 C           5.9113   41.3975    7.6937 C.3     1  UNL1        0.0781
      9 C           5.0636   43.2819    8.8696 C.3     1  UNL1        0.0722
     10 C           5.9329   44.2086    8.0010 C.3     1  UNL1        0.0178
     11 C           7.2637   43.5632    7.6193 C.3     1  UNL1        0.0087
     12 N           5.6422   41.9423    9.0228 N.3     1  UNL1       -0.2702
     13 C           4.6205   41.1012    9.6214 C.3     1  UNL1        0.1042
     14 C           3.2729   41.7911    9.5363 C.3     1  UNL1        0.1544
     15 O           2.4301   41.0616    8.6998 O.3     1  UNL1       -0.3805
     16 H           2.8220   41.0067    7.8142 H       1  UNL1        0.2105
     17 N          11.7603   41.9328    5.8363 N.pl3   1  UNL1       -0.2680
     18 H          11.6408   42.2826    4.9239 H       1  UNL1        0.1565
     19 C          13.0502   42.1352    6.4293 C.ar    1  UNL1        0.2211
     20 C          15.0938   43.3229    6.5745 C.ar    1  UNL1        0.0634
     21 C          15.5220   42.4839    7.6014 C.ar    1  UNL1        0.0296
     22 C          14.6691   41.4647    8.0202 C.ar    1  UNL1        0.0634
     23 C          15.0874   40.5477    9.1124 C.3     1  UNL1        0.0522
     24 C          15.9720   44.4224    6.0974 C.3     1  UNL1        0.0522
     25 N          13.8728   43.1353    6.0096 N.ar    1  UNL1       -0.2179
     26 N          13.4552   41.3091    7.4303 N.ar    1  UNL1       -0.2179
@<TRIPOS>BOND
     1    19    17    1
     2    19    26   ar
     3     2     6   ar
     4     7     2    1
     5     7     8    1
     6     8    12    1
     7     9    12    1
     8     9    10    1
     9    10    11    1
    10    11     7    1
    11    13    12    1
    12    13    14    1
    13    14    15    1
    14     3     4   ar
    15     5     1   ar
    16    20    25   ar
    17    21    22   ar
    18    23    22    1
    19    24    20    1
    20    17     1    1
    21    19    25   ar
    22     1     6   ar
    23     2     3   ar
    24     4     5   ar
    25    20    21   ar
    26    22    26   ar
    27    17    18    1
    28    15    16    1
@<TRIPOS>MOLECULE
MolPort-020-298-667 CHEMBL3450043 MCULE-7664358719 PubChem-110269812
 26 28 0 0 0
SMALL
GASTEIGER

@<TRIPOS>ATOM
      1 C          13.6033   40.6329    9.2707 C.ar    1  UNL1        0.1339
      2 C          11.2534   40.9954    9.1096 C.ar    1  UNL1        0.0614
      3 C          11.0549   40.3924   10.3588 C.ar    1  UNL1        0.0149
      4 C          12.1547   39.9064   11.0644 C.ar    1  UNL1        0.0041
      5 C          13.4343   40.0251   10.5222 C.ar    1  UNL1        0.0345
      6 N          12.5123   41.0987    8.6032 N.ar    1  UNL1       -0.2348
      7 C          10.1015   41.5293    8.3193 C.3     1  UNL1        0.0563
      8 C          10.3858   41.4654    6.8106 C.3     1  UNL1        0.0781
      9 C           8.2046   40.7181    6.2307 C.3     1  UNL1        0.0722
     10 C           7.7174   41.0534    7.6517 C.3     1  UNL1        0.0178
     11 C           8.7988   40.8179    8.7046 C.3     1  UNL1        0.0087
     12 N           9.6317   40.3803    6.1864 N.3     1  UNL1       -0.2702
     13 C          10.0207   40.3505    4.7873 C.3     1  UNL1        0.1042
     14 C           9.5376   39.0635    4.1475 C.3     1  UNL1        0.1544
     15 O           8.9126   39.3535    2.9361 O.3     1  UNL1       -0.3805
     16 H           8.1563   39.9397    3.0947 H       1  UNL1        0.2105
     17 N          14.8972   40.7803    8.6681 N.pl3   1  UNL1       -0.2680
     18 H          15.4954   40.0004    8.7253 H       1  UNL1        0.1565
     19 C          15.4197   41.9320    7.9922 C.ar    1  UNL1        0.2211
     20 C          17.1479   43.5115    7.6364 C.ar    1  UNL1        0.0634
     21 C          16.3801   44.1503    6.6647 C.ar    1  UNL1        0.0296
     22 C          15.1151   43.6392    6.3815 C.ar    1  UNL1        0.0634
     23 C          14.2639   44.2908    5.3521 C.3     1  UNL1        0.0522
     24 C          18.5024   44.0235    7.9693 C.3     1  UNL1        0.0522
     25 N          16.6575   42.4202    8.2795 N.ar    1  UNL1       -0.2179
     26 N          14.6597   42.5454    7.0464 N.ar    1  UNL1       -0.2179
@<TRIPOS>BOND
     1    19    17    1
     2    19    26   ar
     3     2     6   ar
     4     7     2    1
     5     7     8    1
     6     8    12    1
     7     9    12    1
     8     9    10    1
     9    10    11    1
    10    11     7    1
    11    13    12    1
    12    13    14    1
    13    14    15    1
    14     3     4   ar
    15     5     1   ar
    16    20    25   ar
    17    21    22   ar
    18    23    22    1
    19    24    20    1
    20    17     1    1
    21    19    25   ar
    22     1     6   ar
    23     2     3   ar
    24     4     5   ar
    25    20    21   ar
    26    22    26   ar
    27    17    18    1
    28    15    16    1
@<TRIPOS>MOLECULE
MolPort-020-298-667 CHEMBL3450043 MCULE-7664358719 PubChem-110269812
 26 28 0 0 0
SMALL
GASTEIGER

@<TRIPOS>ATOM
      1 C          10.2539   41.5164    6.2738 C.ar    1  UNL1        0.1339
      2 C           8.4853   41.4484    7.8698 C.ar    1  UNL1        0.0614
      3 C           7.9912   40.2669    7.3011 C.ar    1  UNL1        0.0149
      4 C           8.6467   39.7120    6.2029 C.ar    1  UNL1        0.0041
      5 C           9.7817   40.3355    5.6848 C.ar    1  UNL1        0.0345
      6 N           9.5946   42.0367    7.3450 N.ar    1  UNL1       -0.2348
      7 C           7.8123   42.0775    9.0478 C.3     1  UNL1        0.0563
      8 C           6.2911   42.1525    8.8438 C.3     1  UNL1        0.0781
      9 C           5.7620   41.5062   11.0698 C.3     1  UNL1        0.0722
     10 C           7.2325   41.7136   11.4742 C.3     1  UNL1        0.0178
     11 C           8.1985   41.3578   10.3457 C.3     1  UNL1        0.0087
     12 N           5.6090   41.1467    9.6555 N.3     1  UNL1       -0.2702
     13 C           4.1944   41.2431    9.3406 C.3     1  UNL1        0.1042
     14 C           3.6566   42.5846    9.7991 C.3     1  UNL1        0.1544
     15 O           2.9971   43.2066    8.7406 O.3     1  UNL1       -0.3805
     16 H           3.6175   43.3403    8.0070 H       1  UNL1        0.2105
     17 N          11.4164   42.1974    5.7802 N.pl3   1  UNL1       -0.2680
     18 H          11.3094   42.6803    4.9290 H       1  UNL1        0.1565
     19 C          12.7161   42.2558    6.3834 C.ar    1  UNL1        0.2211
     20 C          14.3263   41.4215    7.9063 C.ar    1  UNL1        0.0634
     21 C          15.2269   42.4096    7.5136 C.ar    1  UNL1        0.0296
     22 C          14.8259   43.3175    6.5355 C.ar    1  UNL1        0.0634
     23 C          15.7560   44.3868    6.0883 C.3     1  UNL1        0.0522
     24 C          14.7133   40.4332    8.9461 C.3     1  UNL1        0.0522
     25 N          13.0940   41.3619    7.3380 N.ar    1  UNL1       -0.2179
     26 N          13.5848   43.2252    5.9907 N.ar    1  UNL1       -0.2179
@<TRIPOS>BOND
     1    19    17    1
     2    19    26   ar
     3     2     6   ar
     4     7     2    1
     5     7     8    1
     6     8    12    1
     7     9    12    1
     8     9    10    1
     9    10    11    1
    10    11     7    1
    11    13    12    1
    12    13    14    1
    13    14    15    1
    14     3     4   ar
    15     5     1   ar
    16    20    25   ar
    17    21    22   ar
    18    23    22    1
    19    24    20    1
    20    17     1    1
    21    19    25   ar
    22     1     6   ar
    23     2     3   ar
    24     4     5   ar
    25    20    21   ar
    26    22    26   ar
    27    17    18    1
    28    15    16    1
@<TRIPOS>MOLECULE
MolPort-020-298-667 CHEMBL3450043 MCULE-7664358719 PubChem-110269812
 26 28 0 0 0
SMALL
GASTEIGER

@<TRIPOS>ATOM
      1 C          10.7442   41.4149    5.8399 C.ar    1  UNL1        0.1339
      2 C           8.4278   41.0617    6.2746 C.ar    1  UNL1        0.0614
      3 C           8.5652   39.6940    6.0024 C.ar    1  UNL1        0.0149
      4 C           9.8155   39.1916    5.6447 C.ar    1  UNL1        0.0041
      5 C          10.9107   40.0513    5.5620 C.ar    1  UNL1        0.0345
      6 N           9.5124   41.8789    6.1867 N.ar    1  UNL1       -0.2348
      7 C           7.1048   41.6420    6.6610 C.3     1  UNL1        0.0563
      8 C           6.7028   41.2119    8.0803 C.3     1  UNL1        0.0781
      9 C           5.8816   43.3525    8.7095 C.3     1  UNL1        0.0722
     10 C           5.9380   43.8010    7.2381 C.3     1  UNL1        0.0178
     11 C           7.1042   43.1652    6.4839 C.3     1  UNL1        0.0087
     12 N           6.8708   42.3155    9.0236 N.3     1  UNL1       -0.2702
     13 C           6.5421   41.7957   10.3394 C.3     1  UNL1        0.1042
     14 C           7.7927   41.7353   11.1946 C.3     1  UNL1        0.1544
     15 O           7.5332   42.3097   12.4376 O.3     1  UNL1       -0.3805
     16 H           7.2679   43.2349   12.3172 H       1  UNL1        0.2105
     17 N          11.8374   42.3417    5.7697 N.pl3   1  UNL1       -0.2680
     18 H          11.7205   43.1076    5.1622 H       1  UNL1        0.1565
     19 C          13.0804   42.2815    6.4822 C.ar    1  UNL1        0.2211
     20 C          14.4665   41.3130    8.1402 C.ar    1  UNL1        0.0634
     21 C          15.4888   42.2054    7.8236 C.ar    1  UNL1        0.0296
     22 C          15.2625   43.1368    6.8121 C.ar    1  UNL1        0.0634
     23 C          16.3265   44.1066    6.4435 C.3     1  UNL1        0.0522
     24 C          14.6659   40.3036    9.2122 C.3     1  UNL1        0.0522
     25 N          13.2872   41.3661    7.4682 N.ar    1  UNL1       -0.2179
     26 N          14.0692   43.1583    6.1629 N.ar    1  UNL1       -0.2179
@<TRIPOS>BOND
     1    19    17    1
     2    19    26   ar
     3     2     6   ar
     4     7     2    1
     5     7     8    1
     6     8    12    1
     7     9    12    1
     8     9    10    1
     9    10    11    1
    10    11     7    1
    11    13    12    1
    12    13    14    1
    13    14    15    1
    14     3     4   ar
    15     5     1   ar
    16    20    25   ar
    17    21    22   ar
    18    23    22    1
    19    24    20    1
    20    17     1    1
    21    19    25   ar
    22     1     6   ar
    23     2     3   ar
    24     4     5   ar
    25    20    21   ar
    26    22    26   ar
    27    17    18    1
    28    15    16    1
@<TRIPOS>MOLECULE
MolPort-020-298-667 CHEMBL3450043 MCULE-7664358719 PubChem-110269812
 26 28 0 0 0
SMALL
GASTEIGER

@<TRIPOS>ATOM
      1 C          13.9008   40.2150    9.2723 C.ar    1  UNL1        0.1339
      2 C          11.6313   39.7035    8.7552 C.ar    1  UNL1        0.0614
      3 C          11.3516   39.4835   10.1105 C.ar    1  UNL1        0.0149
      4 C          12.3698   39.6345   11.0507 C.ar    1  UNL1        0.0041
      5 C          13.6495   40.0012   10.6345 C.ar    1  UNL1        0.0345
      6 N          12.8885   40.0605    8.3756 N.ar    1  UNL1       -0.2348
      7 C          10.5687   39.5518    7.7139 C.3     1  UNL1        0.0563
      8 C           9.2770   40.2730    8.1292 C.3     1  UNL1        0.0781
      9 C           8.8468   41.1662    5.9683 C.3     1  UNL1        0.0722
     10 C           9.9206   40.2363    5.3757 C.3     1  UNL1        0.0178
     11 C          11.0813   40.0038    6.3411 C.3     1  UNL1        0.0087
     12 N           9.1072   41.5104    7.3705 N.3     1  UNL1       -0.2702
     13 C           7.9102   42.1546    7.8820 C.3     1  UNL1        0.1042
     14 C           6.9543   41.1081    8.4208 C.3     1  UNL1        0.1544
     15 O           5.7539   41.1688    7.7154 O.3     1  UNL1       -0.3805
     16 H           5.3617   42.0498    7.8200 H       1  UNL1        0.2105
     17 N          15.1986   40.5934    8.7912 N.pl3   1  UNL1       -0.2680
     18 H          15.9313   39.9611    8.9717 H       1  UNL1        0.1565
     19 C          15.5518   41.7863    8.0780 C.ar    1  UNL1        0.2211
     20 C          15.0246   43.5029    6.5342 C.ar    1  UNL1        0.0634
     21 C          16.2777   44.0800    6.7299 C.ar    1  UNL1        0.0296
     22 C          17.1540   43.4681    7.6240 C.ar    1  UNL1        0.0634
     23 C          18.5002   44.0512    7.8616 C.3     1  UNL1        0.0522
     24 C          14.0595   44.1229    5.5897 C.3     1  UNL1        0.0522
     25 N          14.6852   42.3730    7.2074 N.ar    1  UNL1       -0.2179
     26 N          16.7778   42.3386    8.2786 N.ar    1  UNL1       -0.2179
@<TRIPOS>BOND
     1    19    17    1
     2    19    26   ar
     3     2     6   ar
     4     7     2    1
     5     7     8    1
     6     8    12    1
     7     9    12    1
     8     9    10    1
     9    10    11    1
    10    11     7    1
    11    13    12    1
    12    13    14    1
    13    14    15    1
    14     3     4   ar
    15     5     1   ar
    16    20    25   ar
    17    21    22   ar
    18    23    22    1
    19    24    20    1
    20    17     1    1
    21    19    25   ar
    22     1     6   ar
    23     2     3   ar
    24     4     5   ar
    25    20    21   ar
    26    22    26   ar
    27    17    18    1
    28    15    16    1
@<TRIPOS>MOLECULE
MolPort-020-298-667 CHEMBL3450043 MCULE-7664358719 PubChem-110269812
 26 28 0 0 0
SMALL
GASTEIGER

@<TRIPOS>ATOM
      1 C          13.8042   40.3239    9.2951 C.ar    1  UNL1        0.1339
      2 C          11.4442   40.1470    9.0143 C.ar    1  UNL1        0.0614
      3 C          11.2861   39.8387   10.3721 C.ar    1  UNL1        0.0149
      4 C          12.4111   39.7749   11.1929 C.ar    1  UNL1        0.0041
      5 C          13.6757   40.0175   10.6567 C.ar    1  UNL1        0.0345
      6 N          12.6892   40.3795    8.5163 N.ar    1  UNL1       -0.2348
      7 C          10.2644   40.2250    8.0987 C.3     1  UNL1        0.0563
      8 C           9.0770   40.9219    8.7809 C.3     1  UNL1        0.0781
      9 C           8.4674   42.1919    6.8657 C.3     1  UNL1        0.0722
     10 C           9.4054   41.3299    6.0018 C.3     1  UNL1        0.0178
     11 C          10.6489   40.8825    6.7678 C.3     1  UNL1        0.0087
     12 N           8.9047   42.2778    8.2635 N.3     1  UNL1       -0.2702
     13 C           7.8167   42.8781    9.0156 C.3     1  UNL1        0.1042
     14 C           7.8392   44.3838    8.8377 C.3     1  UNL1        0.1544
     15 O           6.5934   44.9096    9.1748 O.3     1  UNL1       -0.3805
     16 H           5.9139   44.5258    8.5988 H       1  UNL1        0.2105
     17 N          15.0811   40.5819    8.6935 N.pl3   1  UNL1       -0.2680
     18 H          15.7410   39.8530    8.7431 H       1  UNL1        0.1565
     19 C          15.5071   41.7788    8.0284 C.ar    1  UNL1        0.2211
     20 C          17.1194   43.4727    7.6550 C.ar    1  UNL1        0.0634
     21 C          16.2811   44.0816    6.7232 C.ar    1  UNL1        0.0296
     22 C          15.0422   43.4969    6.4684 C.ar    1  UNL1        0.0634
     23 C          14.1180   44.1144    5.4819 C.3     1  UNL1        0.0522
     24 C          18.4492   44.0630    7.9566 C.3     1  UNL1        0.0522
     25 N          16.7205   42.3388    8.2877 N.ar    1  UNL1       -0.2179
     26 N          14.6790   42.3624    7.1217 N.ar    1  UNL1       -0.2179
@<TRIPOS>BOND
     1    19    17    1
     2    19    26   ar
     3     2     6   ar
     4     7     2    1
     5     7     8    1
     6     8    12    1
     7     9    12    1
     8     9    10    1
     9    10    11    1
    10    11     7    1
    11    13    12    1
    12    13    14    1
    13    14    15    1
    14     3     4   ar
    15     5     1   ar
    16    20    25   ar
    17    21    22   ar
    18    23    22    1
    19    24    20    1
    20    17     1    1
    21    19    25   ar
    22     1     6   ar
    23     2     3   ar
    24     4     5   ar
    25    20    21   ar
    26    22    26   ar
    27    17    18    1
    28    15    16    1
@<TRIPOS>MOLECULE
MolPort-020-298-667 CHEMBL3450043 MCULE-7664358719 PubChem-110269812
 26 28 0 0 0
SMALL
GASTEIGER

@<TRIPOS>ATOM
      1 C          15.2917   41.8808    7.8865 C.ar    1  UNL1        0.1339
      2 C          12.9582   41.7080    7.4341 C.ar    1  UNL1        0.0614
      3 C          13.0615   42.6780    6.4281 C.ar    1  UNL1        0.0149
      4 C          14.3034   43.2505    6.1570 C.ar    1  UNL1        0.0041
      5 C          15.4242   42.8534    6.8861 C.ar    1  UNL1        0.0345
      6 N          14.0674   41.3383    8.1306 N.ar    1  UNL1       -0.2348
      7 C          11.6453   41.0692    7.7576 C.3     1  UNL1        0.0563
      8 C          10.6551   41.2135    6.5916 C.3     1  UNL1        0.0781
      9 C           9.8190   38.9948    6.7677 C.3     1  UNL1        0.0722
     10 C          10.5195   38.8444    8.1300 C.3     1  UNL1        0.0178
     11 C          11.8396   39.6106    8.1893 C.3     1  UNL1        0.0087
     12 N          10.5012   39.9451    5.8821 N.3     1  UNL1       -0.2702
     13 C           9.6133   40.1973    4.7606 C.3     1  UNL1        0.1042
     14 C           9.8966   39.2062    3.6486 C.3     1  UNL1        0.1544
     15 O           8.7618   39.0654    2.8521 O.3     1  UNL1       -0.3805
     16 H           8.0248   38.7422    3.3936 H       1  UNL1        0.2105
     17 N          16.4121   41.4369    8.6652 N.pl3   1  UNL1       -0.2680
     18 H          17.2382   41.9657    8.5803 H       1  UNL1        0.1565
     19 C          16.4678   40.3119    9.5528 C.ar    1  UNL1        0.2211
     20 C          17.6586   38.5250   10.5513 C.ar    1  UNL1        0.0634
     21 C          16.5245   38.1565   11.2722 C.ar    1  UNL1        0.0296
     22 C          15.3617   38.9051   11.1018 C.ar    1  UNL1        0.0634
     23 C          14.1300   38.5457   11.8518 C.3     1  UNL1        0.0522
     24 C          18.9196   37.7539   10.7032 C.3     1  UNL1        0.0522
     25 N          17.6110   39.5897    9.7091 N.ar    1  UNL1       -0.2179
     26 N          15.3537   39.9636   10.2500 N.ar    1  UNL1       -0.2179
@<TRIPOS>BOND
     1    19    17    1
     2    19    26   ar
     3     2     6   ar
     4     7     2    1
     5     7     8    1
     6     8    12    1
     7     9    12    1
     8     9    10    1
     9    10    11    1
    10    11     7    1
    11    13    12    1
    12    13    14    1
    13    14    15    1
    14     3     4   ar
    15     5     1   ar
    16    20    25   ar
    17    21    22   ar
    18    23    22    1
    19    24    20    1
    20    17     1    1
    21    19    25   ar
    22     1     6   ar
    23     2     3   ar
    24     4     5   ar
    25    20    21   ar
    26    22    26   ar
    27    17    18    1
    28    15    16    1
@<TRIPOS>MOLECULE
MolPort-020-298-667 CHEMBL3450043 MCULE-7664358719 PubChem-110269812
 26 28 0 0 0
SMALL
GASTEIGER

@<TRIPOS>ATOM
      1 C          15.6658   41.9677    7.9311 C.ar    1  UNL1        0.1339
      2 C          13.4627   41.7102    7.0594 C.ar    1  UNL1        0.0614
      3 C          13.6068   42.8772    6.2972 C.ar    1  UNL1        0.0149
      4 C          14.8025   43.5911    6.3616 C.ar    1  UNL1        0.0041
      5 C          15.8374   43.1383    7.1798 C.ar    1  UNL1        0.0345
      6 N          14.4880   41.2901    7.8495 N.ar    1  UNL1       -0.2348
      7 C          12.1968   40.9149    7.0202 C.3     1  UNL1        0.0563
      8 C          11.2881   41.2583    8.2107 C.3     1  UNL1        0.0781
      9 C           9.2848   41.2762    6.9305 C.3     1  UNL1        0.0722
     10 C          10.0350   40.6213    5.7569 C.3     1  UNL1        0.0178
     11 C          11.4887   41.0821    5.6703 C.3     1  UNL1        0.0087
     12 N          10.1628   42.0865    7.7821 N.3     1  UNL1       -0.2702
     13 C           9.4090   42.4206    8.9779 C.3     1  UNL1        0.1042
     14 C          10.3620   42.7147   10.1200 C.3     1  UNL1        0.1544
     15 O          10.5501   44.0916   10.2246 O.3     1  UNL1       -0.3805
     16 H          10.9235   44.4308    9.3961 H       1  UNL1        0.2105
     17 N          16.6980   41.4587    8.7880 N.pl3   1  UNL1       -0.2680
     18 H          17.5447   41.9611    8.7954 H       1  UNL1        0.1565
     19 C          16.6391   40.3029    9.6347 C.ar    1  UNL1        0.2211
     20 C          15.4521   38.8819   11.1112 C.ar    1  UNL1        0.0634
     21 C          16.5755   38.0695   11.2512 C.ar    1  UNL1        0.0296
     22 C          17.7312   38.4149   10.5536 C.ar    1  UNL1        0.0634
     23 C          18.9514   37.5753   10.6753 C.3     1  UNL1        0.0522
     24 C          14.1989   38.5499   11.8373 C.3     1  UNL1        0.0522
     25 N          15.5029   39.9779   10.3103 N.ar    1  UNL1       -0.2179
     26 N          17.7427   39.5191    9.7622 N.ar    1  UNL1       -0.2179
@<TRIPOS>BOND
     1    19    17    1
     2    19    26   ar
     3     2     6   ar
     4     7     2    1
     5     7     8    1
     6     8    12    1
     7     9    12    1
     8     9    10    1
     9    10    11    1
    10    11     7    1
    11    13    12    1
    12    13    14    1
    13    14    15    1
    14     3     4   ar
    15     5     1   ar
    16    20    25   ar
    17    21    22   ar
    18    23    22    1
    19    24    20    1
    20    17     1    1
    21    19    25   ar
    22     1     6   ar
    23     2     3   ar
    24     4     5   ar
    25    20    21   ar
    26    22    26   ar
    27    17    18    1
    28    15    16    1
@<TRIPOS>MOLECULE
MolPort-020-298-667 CHEMBL3450043 MCULE-7664358719 PubChem-110269812
 26 28 0 0 0
SMALL
GASTEIGER

@<TRIPOS>ATOM
      1 C          12.7515   40.6700    9.0881 C.ar    1  UNL1        0.1339
      2 C          10.6391   41.2874   10.0026 C.ar    1  UNL1        0.0614
      3 C          10.9599   40.6636   11.2157 C.ar    1  UNL1        0.0149
      4 C          12.1976   40.0373   11.3546 C.ar    1  UNL1        0.0041
      5 C          13.0989   40.0382   10.2900 C.ar    1  UNL1        0.0345
      6 N          11.5365   41.2739    8.9796 N.ar    1  UNL1       -0.2348
      7 C           9.3224   41.9701    9.8110 C.3     1  UNL1        0.0563
      8 C           8.7762   41.7358    8.3940 C.3     1  UNL1        0.0781
      9 C           6.5352   41.3795    9.1032 C.3     1  UNL1        0.0722
     10 C           6.8983   41.9115   10.5011 C.3     1  UNL1        0.0178
     11 C           8.3283   41.5546   10.9023 C.3     1  UNL1        0.0087
     12 N           7.6787   40.7710    8.4142 N.3     1  UNL1       -0.2702
     13 C           7.2821   40.5585    7.0332 C.3     1  UNL1        0.1042
     14 C           7.5529   41.8111    6.2227 C.3     1  UNL1        0.1544
     15 O           6.4591   42.0781    5.4015 O.3     1  UNL1       -0.3805
     16 H           6.3147   41.3295    4.8018 H       1  UNL1        0.2105
     17 N          13.6414   40.7002    7.9629 N.pl3   1  UNL1       -0.2680
     18 H          13.6404   39.9027    7.3857 H       1  UNL1        0.1565
     19 C          14.5319   41.7576    7.5820 C.ar    1  UNL1        0.2211
     20 C          16.5916   42.9049    7.8045 C.ar    1  UNL1        0.0634
     21 C          16.2091   43.8079    6.8147 C.ar    1  UNL1        0.0296
     22 C          14.9576   43.6481    6.2230 C.ar    1  UNL1        0.0634
     23 C          14.5110   44.5895    5.1634 C.3     1  UNL1        0.0522
     24 C          17.9176   43.0390    8.4614 C.3     1  UNL1        0.0522
     25 N          15.7516   41.9015    8.1690 N.ar    1  UNL1       -0.2179
     26 N          14.1457   42.6316    6.6148 N.ar    1  UNL1       -0.2179
@<TRIPOS>BOND
     1    19    17    1
     2    19    26   ar
     3     2     6   ar
     4     7     2    1
     5     7     8    1
     6     8    12    1
     7     9    12    1
     8     9    10    1
     9    10    11    1
    10    11     7    1
    11    13    12    1
    12    13    14    1
    13    14    15    1
    14     3     4   ar
    15     5     1   ar
    16    20    25   ar
    17    21    22   ar
    18    23    22    1
    19    24    20    1
    20    17     1    1
    21    19    25   ar
    22     1     6   ar
    23     2     3   ar
    24     4     5   ar
    25    20    21   ar
    26    22    26   ar
    27    17    18    1
    28    15    16    1
@<TRIPOS>MOLECULE
MolPort-020-298-667 CHEMBL3450043 MCULE-7664358719 PubChem-110269812
 26 28 0 0 0
SMALL
GASTEIGER

@<TRIPOS>ATOM
      1 C          11.3638   41.0620    8.7248 C.ar    1  UNL1        0.1339
      2 C           9.1595   41.9517    8.8958 C.ar    1  UNL1        0.0614
      3 C           9.1502   41.7155   10.2770 C.ar    1  UNL1        0.0149
      4 C          10.2700   41.1436   10.8791 C.ar    1  UNL1        0.0041
      5 C          11.3820   40.8144   10.1042 C.ar    1  UNL1        0.0345
      6 N          10.2574   41.6213    8.1627 N.ar    1  UNL1       -0.2348
      7 C           7.9793   42.5626    8.2100 C.3     1  UNL1        0.0563
      8 C           6.7569   41.6338    8.2749 C.3     1  UNL1        0.0781
      9 C           5.2094   43.3774    8.7411 C.3     1  UNL1        0.0722
     10 C           6.2829   44.4198    8.3805 C.3     1  UNL1        0.0178
     11 C           7.6876   43.9611    8.7675 C.3     1  UNL1        0.0087
     12 N           5.7832   42.1255    9.2474 N.3     1  UNL1       -0.2702
     13 C           4.7078   41.1503    9.2935 C.3     1  UNL1        0.1042
     14 C           3.3730   41.8624    9.3945 C.3     1  UNL1        0.1544
     15 O           2.4022   41.1269    8.7171 O.3     1  UNL1       -0.3805
     16 H           2.6536   41.0416    7.7842 H       1  UNL1        0.2105
     17 N          12.4806   40.7426    7.8826 N.pl3   1  UNL1       -0.2680
     18 H          12.4339   39.8830    7.4049 H       1  UNL1        0.1565
     19 C          13.6570   41.5308    7.6561 C.ar    1  UNL1        0.2211
     20 C          15.9249   42.0363    8.1137 C.ar    1  UNL1        0.0634
     21 C          15.8930   43.0748    7.1851 C.ar    1  UNL1        0.0296
     22 C          14.7025   43.3126    6.5011 C.ar    1  UNL1        0.0634
     23 C          14.6260   44.4105    5.5024 C.3     1  UNL1        0.0522
     24 C          17.1740   41.7485    8.8650 C.3     1  UNL1        0.0522
     25 N          14.8132   41.2868    8.3319 N.ar    1  UNL1       -0.2179
     26 N          13.6117   42.5409    6.7472 N.ar    1  UNL1       -0.2179
@<TRIPOS>BOND
     1    19    17    1
     2    19    26   ar
     3     2     6   ar
     4     7     2    1
     5     7     8    1
     6     8    12    1
     7     9    12    1
     8     9    10    1
     9    10    11    1
    10    11     7    1
    11    13    12    1
    12    13    14    1
    13    14    15    1
    14     3     4   ar
    15     5     1   ar
    16    20    25   ar
    17    21    22   ar
    18    23    22    1
    19    24    20    1
    20    17     1    1
    21    19    25   ar
    22     1     6   ar
    23     2     3   ar
    24     4     5   ar
    25    20    21   ar
    26    22    26   ar
    27    17    18    1
    28    15    16    1
