@<TRIPOS>MOLECULE
MolPort-046-958-378 MCULE-1290761083 PubChem-110093598
 33 37 0 0 0
SMALL
GASTEIGER

@<TRIPOS>ATOM
      1 C          10.9989   40.4426    9.7451 C.3     1  UNL1        0.0563
      2 C          10.4148   39.7327    8.5194 C.3     1  UNL1        0.0087
      3 C          11.4041   38.7574    7.8762 C.3     1  UNL1        0.0178
      4 C          12.8406   39.1116    8.2523 C.3     1  UNL1        0.0724
      5 C          11.9477   39.5202   10.5192 C.3     1  UNL1        0.0783
      6 N          13.0585   38.9939    9.7013 N.3     1  UNL1       -0.2686
      7 C           9.2065   41.2031   14.2864 C.3     1  UNL1        0.0521
      8 C           9.0492   41.3226   12.8140 C.ar    1  UNL1        0.0602
      9 C           7.9020   41.9124   12.2811 C.ar    1  UNL1        0.0294
     10 C           7.7621   42.0219   10.8917 C.ar    1  UNL1        0.0521
     11 C           8.7790   41.5389   10.0646 C.ar    1  UNL1        0.0294
     12 C           9.9129   40.9521   10.6321 C.ar    1  UNL1        0.0608
     13 N          10.0235   40.8594   11.9869 N.ar    1  UNL1       -0.2539
     14 N           6.6093   42.6247   10.2899 N.pl3   1  UNL1       -0.2927
     15 H           6.7118   43.5470    9.9612 H       1  UNL1        0.1541
     16 C           5.3227   42.0181   10.1191 C.ar    1  UNL1        0.1636
     17 C           3.7051   40.4696   10.2496 C.ar    1  UNL1        0.1079
     18 C           2.9970   41.4489    9.5511 C.ar    1  UNL1        0.0588
     19 N           4.9909   40.7882   10.5605 N.ar    1  UNL1       -0.2224
     20 S           4.0448   42.7504    9.3282 S.2     1  UNL1       -0.0508
     21 C          14.2384   39.7859   10.0128 C.3     1  UNL1        0.0992
     22 C          14.4406   40.8425    8.9796 C.ar    1  UNL1       -0.0046
     23 C          15.7438   41.2985    8.7048 C.ar    1  UNL1        0.0159
     24 C          15.8867   42.2789    7.7247 C.ar    1  UNL1        0.0795
     25 C          14.8120   42.7875    7.0420 C.ar    1  UNL1        0.0797
     26 C          13.5098   42.3557    7.2855 C.ar    1  UNL1        0.0185
     27 C          13.3326   41.3667    8.2703 C.ar    1  UNL1       -0.0013
     28 C          16.5865   43.7397    6.3356 C.ar    1  UNL1        0.3316
     29 C          18.3767   42.6402    7.7309 C.3     1  UNL1        0.1351
     30 C          14.4478   44.4993    5.2354 C.3     1  UNL1        0.1351
     31 N          15.2433   43.7104    6.1626 N.ar    1  UNL1       -0.2779
     32 N          17.0116   42.8737    7.2861 N.ar    1  UNL1       -0.2779
     33 O          17.3582   44.4921    5.6815 O.2     1  UNL1       -0.2463
@<TRIPOS>BOND
     1     7     8    1
     2     8    13   ar
     3     9    10   ar
     4    10    14    1
     5    11    12   ar
     6     1    12    1
     7     1     2    1
     8     2     3    1
     9     3     4    1
    10     4     6    1
    11     5     6    1
    12     5     1    1
    13    21     6    1
    14    21    22    1
    15    23    24   ar
    16    25    26   ar
    17    25    31   ar
    18    27    22   ar
    19    28    32   ar
    20    29    32    1
    21    30    31    1
    22    16    20   ar
    23    17    19   ar
    24    18    20   ar
    25    31    28   ar
    26    32    24   ar
    27    14    16    1
    28     8     9   ar
    29    10    11   ar
    30    12    13   ar
    31    22    23   ar
    32    24    25   ar
    33    26    27   ar
    34    28    33    2
    35    16    19   ar
    36    17    18   ar
    37    14    15    1
@<TRIPOS>MOLECULE
MolPort-046-958-378 MCULE-1290761083 PubChem-110093598
 33 37 0 0 0
SMALL
GASTEIGER

@<TRIPOS>ATOM
      1 C          12.2783   38.5938    9.2371 C.3     1  UNL1        0.0563
      2 C          11.7337   37.7093   10.3635 C.3     1  UNL1        0.0087
      3 C          12.7564   37.4800   11.4795 C.3     1  UNL1        0.0178
      4 C          14.1772   37.7140   10.9727 C.3     1  UNL1        0.0724
      5 C          13.2315   39.6625    9.7842 C.3     1  UNL1        0.0783
      6 N          14.3692   39.1069   10.5436 N.3     1  UNL1       -0.2686
      7 C           9.7321   39.0488    5.0270 C.3     1  UNL1        0.0521
      8 C           9.9356   39.4392    6.4460 C.ar    1  UNL1        0.0602
      9 C           9.0853   40.3725    7.0409 C.ar    1  UNL1        0.0294
     10 C           9.2835   40.7343    8.3794 C.ar    1  UNL1        0.0521
     11 C          10.3309   40.1493    9.0952 C.ar    1  UNL1        0.0294
     12 C          11.1644   39.2201    8.4673 C.ar    1  UNL1        0.0608
     13 N          10.9482   38.8857    7.1644 N.ar    1  UNL1       -0.2539
     14 N           8.4371   41.6816    9.0433 N.pl3   1  UNL1       -0.2927
     15 H           8.8341   42.5563    9.2588 H       1  UNL1        0.1541
     16 C           7.0705   41.4817    9.4243 C.ar    1  UNL1        0.1636
     17 C           4.8728   41.0901    9.2055 C.ar    1  UNL1        0.1079
     18 C           4.9183   41.2396   10.5925 C.ar    1  UNL1        0.0588
     19 N           6.0649   41.2259    8.5637 N.ar    1  UNL1       -0.2224
     20 S           6.5231   41.5531   11.0023 S.2     1  UNL1       -0.0508
     21 C          15.5254   39.1172    9.6606 C.3     1  UNL1        0.0992
     22 C          15.5828   40.3974    8.8974 C.ar    1  UNL1       -0.0046
     23 C          14.4725   40.7916    8.1266 C.ar    1  UNL1        0.0159
     24 C          14.5661   41.9998    7.4385 C.ar    1  UNL1        0.0795
     25 C          15.6859   42.7884    7.5017 C.ar    1  UNL1        0.0797
     26 C          16.8003   42.4309    8.2581 C.ar    1  UNL1        0.0185
     27 C          16.7367   41.2156    8.9641 C.ar    1  UNL1       -0.0013
     28 C          14.2515   43.7341    6.2358 C.ar    1  UNL1        0.3316
     29 C          12.3279   42.1041    6.2941 C.3     1  UNL1        0.1351
     30 C          16.4214   44.9866    6.5253 C.3     1  UNL1        0.1351
     31 N          15.4972   43.8857    6.7459 N.ar    1  UNL1       -0.2779
     32 N          13.6548   42.5880    6.6417 N.ar    1  UNL1       -0.2779
     33 O          13.7058   44.5704    5.4661 O.2     1  UNL1       -0.2463
@<TRIPOS>BOND
     1     7     8    1
     2     8    13   ar
     3     9    10   ar
     4    10    14    1
     5    11    12   ar
     6     1    12    1
     7     1     2    1
     8     2     3    1
     9     3     4    1
    10     4     6    1
    11     5     6    1
    12     5     1    1
    13    21     6    1
    14    21    22    1
    15    23    24   ar
    16    25    26   ar
    17    25    31   ar
    18    27    22   ar
    19    28    32   ar
    20    29    32    1
    21    30    31    1
    22    16    20   ar
    23    17    19   ar
    24    18    20   ar
    25    31    28   ar
    26    32    24   ar
    27    14    16    1
    28     8     9   ar
    29    10    11   ar
    30    12    13   ar
    31    22    23   ar
    32    24    25   ar
    33    26    27   ar
    34    28    33    2
    35    16    19   ar
    36    17    18   ar
    37    14    15    1
@<TRIPOS>MOLECULE
MolPort-046-958-378 MCULE-1290761083 PubChem-110093598
 33 37 0 0 0
SMALL
GASTEIGER

@<TRIPOS>ATOM
      1 C          10.4665   41.2203    8.1944 C.3     1  UNL1        0.0563
      2 C          10.4784   40.8487    6.7080 C.3     1  UNL1        0.0087
      3 C          11.4553   39.7131    6.3921 C.3     1  UNL1        0.0178
      4 C          12.5279   39.6011    7.4725 C.3     1  UNL1        0.0724
      5 C          10.6877   39.9853    9.0754 C.3     1  UNL1        0.0783
      6 N          11.9401   39.2627    8.7767 N.3     1  UNL1       -0.2686
      7 C           8.0327   45.3868    9.2580 C.3     1  UNL1        0.0521
      8 C           8.0216   43.9134    9.0678 C.ar    1  UNL1        0.0602
      9 C           6.8323   43.1995    9.2226 C.ar    1  UNL1        0.0294
     10 C           6.8304   41.8107    9.0407 C.ar    1  UNL1        0.0521
     11 C           8.0233   41.1663    8.7040 C.ar    1  UNL1        0.0294
     12 C           9.1961   41.9119    8.5593 C.ar    1  UNL1        0.0608
     13 N           9.1691   43.2619    8.7412 N.ar    1  UNL1       -0.2539
     14 N           5.6376   41.0284    9.1797 N.pl3   1  UNL1       -0.2927
     15 H           5.5502   40.2445    8.5905 H       1  UNL1        0.1541
     16 C           4.5598   41.2739   10.0911 C.ar    1  UNL1        0.1636
     17 C           3.3507   41.1745   11.9778 C.ar    1  UNL1        0.1079
     18 C           2.4936   41.9798   11.2260 C.ar    1  UNL1        0.0588
     19 N           4.4913   40.7857   11.3458 N.ar    1  UNL1       -0.2224
     20 S           3.2161   42.1961    9.7185 S.2     1  UNL1       -0.0508
     21 C          12.9135   39.6476    9.7871 C.3     1  UNL1        0.0992
     22 C          13.9942   40.4748    9.1766 C.ar    1  UNL1       -0.0046
     23 C          13.6711   41.3857    8.1530 C.ar    1  UNL1        0.0159
     24 C          14.7104   42.1451    7.6190 C.ar    1  UNL1        0.0795
     25 C          16.0018   42.0260    8.0638 C.ar    1  UNL1        0.0797
     26 C          16.3556   41.1381    9.0778 C.ar    1  UNL1        0.0185
     27 C          15.3281   40.3563    9.6370 C.ar    1  UNL1       -0.0013
     28 C          15.9416   43.4962    6.5181 C.ar    1  UNL1        0.3316
     29 C          13.4988   43.5154    5.8913 C.3     1  UNL1        0.1351
     30 C          18.2195   43.0797    7.5177 C.3     1  UNL1        0.1351
     31 N          16.7868   42.8748    7.3752 N.ar    1  UNL1       -0.2779
     32 N          14.6619   43.0707    6.6430 N.ar    1  UNL1       -0.2779
     33 O          16.3069   44.3766    5.6929 O.2     1  UNL1       -0.2463
@<TRIPOS>BOND
     1     7     8    1
     2     8    13   ar
     3     9    10   ar
     4    10    14    1
     5    11    12   ar
     6     1    12    1
     7     1     2    1
     8     2     3    1
     9     3     4    1
    10     4     6    1
    11     5     6    1
    12     5     1    1
    13    21     6    1
    14    21    22    1
    15    23    24   ar
    16    25    26   ar
    17    25    31   ar
    18    27    22   ar
    19    28    32   ar
    20    29    32    1
    21    30    31    1
    22    16    20   ar
    23    17    19   ar
    24    18    20   ar
    25    31    28   ar
    26    32    24   ar
    27    14    16    1
    28     8     9   ar
    29    10    11   ar
    30    12    13   ar
    31    22    23   ar
    32    24    25   ar
    33    26    27   ar
    34    28    33    2
    35    16    19   ar
    36    17    18   ar
    37    14    15    1
@<TRIPOS>MOLECULE
MolPort-046-958-378 MCULE-1290761083 PubChem-110093598
 33 37 0 0 0
SMALL
GASTEIGER

@<TRIPOS>ATOM
      1 C          11.5652   38.5341    8.5122 C.3     1  UNL1        0.0563
      2 C          10.7817   37.6466    9.4848 C.3     1  UNL1        0.0087
      3 C          11.5826   37.3007   10.7428 C.3     1  UNL1        0.0178
      4 C          13.0810   37.4528   10.4933 C.3     1  UNL1        0.0724
      5 C          12.4774   39.5095    9.2650 C.3     1  UNL1        0.0783
      6 N          13.4315   38.8443   10.1744 N.3     1  UNL1       -0.2686
      7 C          10.0654   39.6201    3.9311 C.3     1  UNL1        0.0521
      8 C           9.9144   39.7904    5.3993 C.ar    1  UNL1        0.0602
      9 C           8.9134   40.6210    5.9054 C.ar    1  UNL1        0.0294
     10 C           8.7775   40.7754    7.2909 C.ar    1  UNL1        0.0521
     11 C           9.6485   40.0899    8.1412 C.ar    1  UNL1        0.0294
     12 C          10.6408   39.2685    7.6001 C.ar    1  UNL1        0.0608
     13 N          10.7498   39.1358    6.2486 N.ar    1  UNL1       -0.2539
     14 N           7.7635   41.6093    7.8661 N.pl3   1  UNL1       -0.2927
     15 H           7.3387   42.2668    7.2690 H       1  UNL1        0.1541
     16 C           7.3068   41.5809    9.2237 C.ar    1  UNL1        0.1636
     17 C           7.3968   41.6509   11.4639 C.ar    1  UNL1        0.1079
     18 C           6.0257   41.4328   11.3195 C.ar    1  UNL1        0.0588
     19 N           8.1012   41.7309   10.3025 N.ar    1  UNL1       -0.2224
     20 S           5.7126   41.3406    9.6657 S.2     1  UNL1       -0.0508
     21 C          14.7194   38.8073    9.4988 C.3     1  UNL1        0.0992
     22 C          14.9949   40.1152    8.8370 C.ar    1  UNL1       -0.0046
     23 C          14.0183   40.6825    7.9966 C.ar    1  UNL1        0.0159
     24 C          14.3141   41.9104    7.4075 C.ar    1  UNL1        0.0795
     25 C          15.5025   42.5567    7.6300 C.ar    1  UNL1        0.0797
     26 C          16.4888   42.0262    8.4592 C.ar    1  UNL1        0.0185
     27 C          16.2201   40.7867    9.0682 C.ar    1  UNL1       -0.0013
     28 C          14.3163   43.7385    6.3070 C.ar    1  UNL1        0.3316
     29 C          12.2273   42.3453    6.0709 C.3     1  UNL1        0.1351
     30 C          16.5720   44.7078    6.8845 C.3     1  UNL1        0.1351
     31 N          15.5137   43.7119    6.9398 N.ar    1  UNL1       -0.2779
     32 N          13.5582   42.6483    6.5734 N.ar    1  UNL1       -0.2779
     33 O          13.9468   44.6777    5.5513 O.2     1  UNL1       -0.2463
@<TRIPOS>BOND
     1     7     8    1
     2     8    13   ar
     3     9    10   ar
     4    10    14    1
     5    11    12   ar
     6     1    12    1
     7     1     2    1
     8     2     3    1
     9     3     4    1
    10     4     6    1
    11     5     6    1
    12     5     1    1
    13    21     6    1
    14    21    22    1
    15    23    24   ar
    16    25    26   ar
    17    25    31   ar
    18    27    22   ar
    19    28    32   ar
    20    29    32    1
    21    30    31    1
    22    16    20   ar
    23    17    19   ar
    24    18    20   ar
    25    31    28   ar
    26    32    24   ar
    27    14    16    1
    28     8     9   ar
    29    10    11   ar
    30    12    13   ar
    31    22    23   ar
    32    24    25   ar
    33    26    27   ar
    34    28    33    2
    35    16    19   ar
    36    17    18   ar
    37    14    15    1
@<TRIPOS>MOLECULE
MolPort-046-958-378 MCULE-1290761083 PubChem-110093598
 33 37 0 0 0
SMALL
GASTEIGER

@<TRIPOS>ATOM
      1 C          10.7108   41.2892    9.2323 C.3     1  UNL1        0.0563
      2 C          10.3241   41.8887    7.8763 C.3     1  UNL1        0.0087
      3 C          11.2158   41.3906    6.7359 C.3     1  UNL1        0.0178
      4 C          12.5489   40.8754    7.2721 C.3     1  UNL1        0.0724
      5 C          11.2117   39.8485    9.0779 C.3     1  UNL1        0.0783
      6 N          12.3577   39.7167    8.1564 N.3     1  UNL1       -0.2686
      7 C           9.0274   41.2547   13.8776 C.3     1  UNL1        0.0521
      8 C           8.7539   41.3411   12.4199 C.ar    1  UNL1        0.0602
      9 C           7.4430   41.4891   11.9642 C.ar    1  UNL1        0.0294
     10 C           7.1940   41.5707   10.5883 C.ar    1  UNL1        0.0521
     11 C           8.2675   41.5046    9.6968 C.ar    1  UNL1        0.0294
     12 C           9.5669   41.3538   10.1878 C.ar    1  UNL1        0.0608
     13 N           9.7806   41.2781   11.5312 N.ar    1  UNL1       -0.2539
     14 N           5.8694   41.7302   10.0645 N.pl3   1  UNL1       -0.2927
     15 H           5.2257   41.0114   10.2600 H       1  UNL1        0.1541
     16 C           5.3892   42.8319    9.2848 C.ar    1  UNL1        0.1636
     17 C           3.9302   44.2634    8.3608 C.ar    1  UNL1        0.1079
     18 C           5.1039   44.7833    7.8130 C.ar    1  UNL1        0.0588
     19 N           4.0926   43.1838    9.1730 N.ar    1  UNL1       -0.2224
     20 S           6.3762   43.8362    8.3836 S.2     1  UNL1       -0.0508
     21 C          13.5582   39.6095    8.9712 C.3     1  UNL1        0.0992
     22 C          14.5426   40.6610    8.5840 C.ar    1  UNL1       -0.0046
     23 C          14.1754   41.6343    7.6354 C.ar    1  UNL1        0.0159
     24 C          15.1228   42.6036    7.3115 C.ar    1  UNL1        0.0795
     25 C          16.3669   42.6262    7.8873 C.ar    1  UNL1        0.0797
     26 C          16.7615   41.6814    8.8324 C.ar    1  UNL1        0.0185
     27 C          15.8269   40.6888    9.1801 C.ar    1  UNL1       -0.0013
     28 C          16.2166   44.2535    6.5148 C.ar    1  UNL1        0.3316
     29 C          13.8762   43.9815    5.6151 C.3     1  UNL1        0.1351
     30 C          18.4240   44.0639    7.7201 C.3     1  UNL1        0.1351
     31 N          17.0650   43.6642    7.3910 N.ar    1  UNL1       -0.2779
     32 N          15.0181   43.6268    6.4435 N.ar    1  UNL1       -0.2779
     33 O          16.5108   45.2761    5.8386 O.2     1  UNL1       -0.2463
@<TRIPOS>BOND
     1     7     8    1
     2     8    13   ar
     3     9    10   ar
     4    10    14    1
     5    11    12   ar
     6     1    12    1
     7     1     2    1
     8     2     3    1
     9     3     4    1
    10     4     6    1
    11     5     6    1
    12     5     1    1
    13    21     6    1
    14    21    22    1
    15    23    24   ar
    16    25    26   ar
    17    25    31   ar
    18    27    22   ar
    19    28    32   ar
    20    29    32    1
    21    30    31    1
    22    16    20   ar
    23    17    19   ar
    24    18    20   ar
    25    31    28   ar
    26    32    24   ar
    27    14    16    1
    28     8     9   ar
    29    10    11   ar
    30    12    13   ar
    31    22    23   ar
    32    24    25   ar
    33    26    27   ar
    34    28    33    2
    35    16    19   ar
    36    17    18   ar
    37    14    15    1
@<TRIPOS>MOLECULE
MolPort-046-958-378 MCULE-1290761083 PubChem-110093598
 33 37 0 0 0
SMALL
GASTEIGER

@<TRIPOS>ATOM
      1 C          12.9058   39.1204    9.9571 C.3     1  UNL1        0.0563
      2 C          12.5396   38.0527   10.9933 C.3     1  UNL1        0.0087
      3 C          13.7433   37.6003   11.8240 C.3     1  UNL1        0.0178
      4 C          15.0510   37.8970   11.0944 C.3     1  UNL1        0.0724
      5 C          14.0043   40.0503   10.4850 C.3     1  UNL1        0.0783
      6 N          15.2341   39.3414   10.8911 N.3     1  UNL1       -0.2686
      7 C           9.9793   43.0599   10.5327 C.3     1  UNL1        0.0521
      8 C          10.2937   41.7947    9.8201 C.ar    1  UNL1        0.0602
      9 C           9.4716   41.3574    8.7805 C.ar    1  UNL1        0.0294
     10 C           9.7756   40.1639    8.1134 C.ar    1  UNL1        0.0521
     11 C          10.9016   39.4341    8.5022 C.ar    1  UNL1        0.0294
     12 C          11.7012   39.9002    9.5489 C.ar    1  UNL1        0.0608
     13 N          11.3828   41.0650   10.1798 N.ar    1  UNL1       -0.2539
     14 N           8.9711   39.6710    7.0344 N.pl3   1  UNL1       -0.2927
     15 H           8.0334   39.4557    7.2429 H       1  UNL1        0.1541
     16 C           9.3963   39.4606    5.6826 C.ar    1  UNL1        0.1636
     17 C           9.5485   38.4977    3.6624 C.ar    1  UNL1        0.1079
     18 C          10.4482   39.5453    3.4596 C.ar    1  UNL1        0.0588
     19 N           8.9702   38.4542    4.8933 N.ar    1  UNL1       -0.2224
     20 S          10.5019   40.4334    4.8913 S.2     1  UNL1       -0.0508
     21 C          16.1978   39.4932    9.8118 C.3     1  UNL1        0.0992
     22 C          15.7959   40.6133    8.9125 C.ar    1  UNL1       -0.0046
     23 C          16.7072   41.6563    8.6599 C.ar    1  UNL1        0.0159
     24 C          16.2933   42.6765    7.8055 C.ar    1  UNL1        0.0795
     25 C          15.0527   42.6784    7.2218 C.ar    1  UNL1        0.0797
     26 C          14.1284   41.6602    7.4464 C.ar    1  UNL1        0.0185
     27 C          14.5166   40.6157    8.3053 C.ar    1  UNL1       -0.0013
     28 C          16.1110   44.4204    6.5894 C.ar    1  UNL1        0.3316
     29 C          18.3168   44.1716    7.7865 C.3     1  UNL1        0.1351
     30 C          13.7817   44.1782    5.6528 C.3     1  UNL1        0.1351
     31 N          14.9279   43.7752    6.4521 N.ar    1  UNL1       -0.2779
     32 N          16.9691   43.7722    7.4127 N.ar    1  UNL1       -0.2779
     33 O          16.3843   45.5076    6.0124 O.2     1  UNL1       -0.2463
@<TRIPOS>BOND
     1     7     8    1
     2     8    13   ar
     3     9    10   ar
     4    10    14    1
     5    11    12   ar
     6     1    12    1
     7     1     2    1
     8     2     3    1
     9     3     4    1
    10     4     6    1
    11     5     6    1
    12     5     1    1
    13    21     6    1
    14    21    22    1
    15    23    24   ar
    16    25    26   ar
    17    25    31   ar
    18    27    22   ar
    19    28    32   ar
    20    29    32    1
    21    30    31    1
    22    16    20   ar
    23    17    19   ar
    24    18    20   ar
    25    31    28   ar
    26    32    24   ar
    27    14    16    1
    28     8     9   ar
    29    10    11   ar
    30    12    13   ar
    31    22    23   ar
    32    24    25   ar
    33    26    27   ar
    34    28    33    2
    35    16    19   ar
    36    17    18   ar
    37    14    15    1
@<TRIPOS>MOLECULE
MolPort-046-958-378 MCULE-1290761083 PubChem-110093598
 33 37 0 0 0
SMALL
GASTEIGER

@<TRIPOS>ATOM
      1 C          12.6406   39.6067    9.5346 C.3     1  UNL1        0.0563
      2 C          12.3694   38.3189    8.7500 C.3     1  UNL1        0.0087
      3 C          13.5613   37.3582    8.7641 C.3     1  UNL1        0.0178
      4 C          14.8579   38.1034    9.0702 C.3     1  UNL1        0.0724
      5 C          13.5325   39.3359   10.7517 C.3     1  UNL1        0.0783
      6 N          14.8240   38.7073   10.4100 N.3     1  UNL1       -0.2686
      7 C           9.6936   41.3352   13.1042 C.3     1  UNL1        0.0521
      8 C           9.9446   41.0923   11.6602 C.ar    1  UNL1        0.0602
      9 C           8.9953   41.4790   10.7129 C.ar    1  UNL1        0.0294
     10 C           9.2403   41.2471    9.3535 C.ar    1  UNL1        0.0521
     11 C          10.4358   40.6333    8.9719 C.ar    1  UNL1        0.0294
     12 C          11.3629   40.2570    9.9472 C.ar    1  UNL1        0.0608
     13 N          11.0994   40.4955   11.2624 N.ar    1  UNL1       -0.2539
     14 N           8.3047   41.6297    8.3373 N.pl3   1  UNL1       -0.2927
     15 H           8.4964   41.3255    7.4209 H       1  UNL1        0.1541
     16 C           7.1181   42.4108    8.5230 C.ar    1  UNL1        0.1636
     17 C           5.7853   44.2145    8.5654 C.ar    1  UNL1        0.1079
     18 C           4.8639   43.2669    9.0139 C.ar    1  UNL1        0.0588
     19 N           7.0307   43.7369    8.2963 N.ar    1  UNL1       -0.2224
     20 S           5.6661   41.7853    9.0662 S.2     1  UNL1       -0.0508
     21 C          15.8324   39.7560   10.4221 C.3     1  UNL1        0.0992
     22 C          15.5880   40.7223    9.3125 C.ar    1  UNL1       -0.0046
     23 C          16.5751   41.6754    8.9975 C.ar    1  UNL1        0.0159
     24 C          16.3087   42.5513    7.9468 C.ar    1  UNL1        0.0795
     25 C          15.1385   42.4984    7.2344 C.ar    1  UNL1        0.0797
     26 C          14.1427   41.5654    7.5163 C.ar    1  UNL1        0.0185
     27 C          14.3818   40.6673    8.5725 C.ar    1  UNL1       -0.0013
     28 C          16.3489   44.0712    6.4497 C.ar    1  UNL1        0.3316
     29 C          18.3997   43.9501    7.9126 C.3     1  UNL1        0.1351
     30 C          14.1220   43.7566    5.3082 C.3     1  UNL1        0.1351
     31 N          15.1542   43.4538    6.2868 N.ar    1  UNL1       -0.2779
     32 N          17.0796   43.5410    7.4593 N.ar    1  UNL1       -0.2779
     33 O          16.7392   45.0356    5.7375 O.2     1  UNL1       -0.2463
@<TRIPOS>BOND
     1     7     8    1
     2     8    13   ar
     3     9    10   ar
     4    10    14    1
     5    11    12   ar
     6     1    12    1
     7     1     2    1
     8     2     3    1
     9     3     4    1
    10     4     6    1
    11     5     6    1
    12     5     1    1
    13    21     6    1
    14    21    22    1
    15    23    24   ar
    16    25    26   ar
    17    25    31   ar
    18    27    22   ar
    19    28    32   ar
    20    29    32    1
    21    30    31    1
    22    16    20   ar
    23    17    19   ar
    24    18    20   ar
    25    31    28   ar
    26    32    24   ar
    27    14    16    1
    28     8     9   ar
    29    10    11   ar
    30    12    13   ar
    31    22    23   ar
    32    24    25   ar
    33    26    27   ar
    34    28    33    2
    35    16    19   ar
    36    17    18   ar
    37    14    15    1
@<TRIPOS>MOLECULE
MolPort-046-958-378 MCULE-1290761083 PubChem-110093598
 33 37 0 0 0
SMALL
GASTEIGER

@<TRIPOS>ATOM
      1 C          12.0944   40.1340    9.0851 C.3     1  UNL1        0.0563
      2 C          11.8020   39.3774    7.7852 C.3     1  UNL1        0.0087
      3 C          10.5643   39.9105    7.0587 C.3     1  UNL1        0.0178
      4 C           9.6478   40.6599    8.0224 C.3     1  UNL1        0.0724
      5 C          11.7246   41.6163    8.9580 C.3     1  UNL1        0.0783
      6 N          10.3147   41.8438    8.5832 N.3     1  UNL1       -0.2686
      7 C          15.5487   37.8115   11.7475 C.3     1  UNL1        0.0521
      8 C          15.1880   38.8594   10.7580 C.ar    1  UNL1        0.0602
      9 C          16.1816   39.6714   10.2091 C.ar    1  UNL1        0.0294
     10 C          15.8329   40.6564    9.2763 C.ar    1  UNL1        0.0521
     11 C          14.4927   40.8046    8.9110 C.ar    1  UNL1        0.0294
     12 C          13.5237   39.9758    9.4823 C.ar    1  UNL1        0.0608
     13 N          13.8909   39.0252   10.3865 N.ar    1  UNL1       -0.2539
     14 N          16.8120   41.5134    8.6752 N.pl3   1  UNL1       -0.2927
     15 H          17.7547   41.3299    8.8917 H       1  UNL1        0.1541
     16 C          16.5549   42.6105    7.7905 C.ar    1  UNL1        0.1636
     17 C          15.4287   43.9413    6.3790 C.ar    1  UNL1        0.1079
     18 C          16.6483   44.6201    6.3733 C.ar    1  UNL1        0.0588
     19 N          15.3821   42.8302    7.1631 N.ar    1  UNL1       -0.2224
     20 S          17.6879   43.7750    7.3962 S.2     1  UNL1       -0.0508
     21 C           9.5949   42.1935    9.7982 C.3     1  UNL1        0.0992
     22 C           8.2090   42.6364    9.4698 C.ar    1  UNL1       -0.0046
     23 C           7.1153   41.8768    9.9268 C.ar    1  UNL1        0.0159
     24 C           5.8385   42.3335    9.6055 C.ar    1  UNL1        0.0795
     25 C           5.6367   43.4777    8.8776 C.ar    1  UNL1        0.0797
     26 C           6.6958   44.2554    8.4138 C.ar    1  UNL1        0.0185
     27 C           7.9978   43.8199    8.7214 C.ar    1  UNL1       -0.0013
     28 C           3.7393   42.6315    9.3654 C.ar    1  UNL1        0.3316
     29 C           4.3894   40.5787   10.6784 C.3     1  UNL1        0.1351
     30 C           3.6521   44.7615    8.0175 C.3     1  UNL1        0.1351
     31 N           4.3147   43.6746    8.7207 N.ar    1  UNL1       -0.2779
     32 N           4.6468   41.7918    9.9182 N.ar    1  UNL1       -0.2779
     33 O           2.4925   42.4608    9.4430 O.2     1  UNL1       -0.2463
@<TRIPOS>BOND
     1     7     8    1
     2     8    13   ar
     3     9    10   ar
     4    10    14    1
     5    11    12   ar
     6     1    12    1
     7     1     2    1
     8     2     3    1
     9     3     4    1
    10     4     6    1
    11     5     6    1
    12     5     1    1
    13    21     6    1
    14    21    22    1
    15    23    24   ar
    16    25    26   ar
    17    25    31   ar
    18    27    22   ar
    19    28    32   ar
    20    29    32    1
    21    30    31    1
    22    16    20   ar
    23    17    19   ar
    24    18    20   ar
    25    31    28   ar
    26    32    24   ar
    27    14    16    1
    28     8     9   ar
    29    10    11   ar
    30    12    13   ar
    31    22    23   ar
    32    24    25   ar
    33    26    27   ar
    34    28    33    2
    35    16    19   ar
    36    17    18   ar
    37    14    15    1
@<TRIPOS>MOLECULE
MolPort-046-958-378 MCULE-1290761083 PubChem-110093598
 33 37 0 0 0
SMALL
GASTEIGER

@<TRIPOS>ATOM
      1 C          12.1437   40.1061    9.3425 C.3     1  UNL1        0.0563
      2 C          11.7365   39.2994    8.1051 C.3     1  UNL1        0.0087
      3 C          10.3136   39.6160    7.6372 C.3     1  UNL1        0.0178
      4 C           9.4874   40.2146    8.7728 C.3     1  UNL1        0.0724
      5 C          11.5208   41.5067    9.3198 C.3     1  UNL1        0.0783
      6 N          10.0475   41.4969    9.2232 N.3     1  UNL1       -0.2686
      7 C          16.3634   38.4571   11.3146 C.3     1  UNL1        0.0521
      8 C          15.6601   39.3953   10.4023 C.ar    1  UNL1        0.0602
      9 C          16.3898   40.3285    9.6642 C.ar    1  UNL1        0.0294
     10 C          15.7189   41.2087    8.8058 C.ar    1  UNL1        0.0521
     11 C          14.3277   41.1325    8.7036 C.ar    1  UNL1        0.0294
     12 C          13.6287   40.1875    9.4590 C.ar    1  UNL1        0.0608
     13 N          14.3067   39.3429   10.2854 N.ar    1  UNL1       -0.2539
     14 N          16.4175   42.1818    8.0188 N.pl3   1  UNL1       -0.2927
     15 H          17.4003   42.1750    8.0753 H       1  UNL1        0.1541
     16 C          15.8274   43.1635    7.1582 C.ar    1  UNL1        0.1636
     17 C          15.5834   45.0962    6.0461 C.ar    1  UNL1        0.1079
     18 C          14.4034   44.4729    5.6373 C.ar    1  UNL1        0.0588
     19 N          16.3671   44.3689    6.8879 N.ar    1  UNL1       -0.2224
     20 S          14.3661   42.9566    6.3729 S.2     1  UNL1       -0.0508
     21 C           9.5245   41.7358   10.5596 C.3     1  UNL1        0.0992
     22 C           8.0439   41.9105   10.5127 C.ar    1  UNL1       -0.0046
     23 C           7.4765   42.7255    9.5148 C.ar    1  UNL1        0.0159
     24 C           6.0887   42.8517    9.5024 C.ar    1  UNL1        0.0795
     25 C           5.2916   42.2112   10.4157 C.ar    1  UNL1        0.0797
     26 C           5.8195   41.3939   11.4132 C.ar    1  UNL1        0.0185
     27 C           7.2182   41.2469   11.4525 C.ar    1  UNL1       -0.0013
     28 C           4.0515   43.3374    9.0935 C.ar    1  UNL1        0.3316
     29 C           5.7392   44.3947    7.5461 C.3     1  UNL1        0.1351
     30 C           2.8255   42.0531   10.8848 C.3     1  UNL1        0.1351
     31 N           4.0038   42.5113   10.1660 N.ar    1  UNL1       -0.2779
     32 N           5.3154   43.5655    8.6634 N.ar    1  UNL1       -0.2779
     33 O           3.0292   43.8399    8.5533 O.2     1  UNL1       -0.2463
@<TRIPOS>BOND
     1     7     8    1
     2     8    13   ar
     3     9    10   ar
     4    10    14    1
     5    11    12   ar
     6     1    12    1
     7     1     2    1
     8     2     3    1
     9     3     4    1
    10     4     6    1
    11     5     6    1
    12     5     1    1
    13    21     6    1
    14    21    22    1
    15    23    24   ar
    16    25    26   ar
    17    25    31   ar
    18    27    22   ar
    19    28    32   ar
    20    29    32    1
    21    30    31    1
    22    16    20   ar
    23    17    19   ar
    24    18    20   ar
    25    31    28   ar
    26    32    24   ar
    27    14    16    1
    28     8     9   ar
    29    10    11   ar
    30    12    13   ar
    31    22    23   ar
    32    24    25   ar
    33    26    27   ar
    34    28    33    2
    35    16    19   ar
    36    17    18   ar
    37    14    15    1
@<TRIPOS>MOLECULE
MolPort-046-958-378 MCULE-1290761083 PubChem-110093598
 33 37 0 0 0
SMALL
GASTEIGER

@<TRIPOS>ATOM
      1 C          13.6553   39.1527   10.3059 C.3     1  UNL1        0.0563
      2 C          13.1570   37.8684    9.6350 C.3     1  UNL1        0.0087
      3 C          11.6934   37.9625    9.1960 C.3     1  UNL1        0.0178
      4 C          10.9581   39.0462    9.9805 C.3     1  UNL1        0.0724
      5 C          13.0075   40.3923    9.6783 C.3     1  UNL1        0.0783
      6 N          11.5318   40.3750    9.7234 N.3     1  UNL1       -0.2686
      7 C          18.0889   37.1742   11.2240 C.3     1  UNL1        0.0521
      8 C          17.2766   38.2929   10.6801 C.ar    1  UNL1        0.0602
      9 C          17.9077   39.4015   10.1139 C.ar    1  UNL1        0.0294
     10 C          17.1344   40.4515    9.6027 C.ar    1  UNL1        0.0521
     11 C          15.7416   40.3659    9.6677 C.ar    1  UNL1        0.0294
     12 C          15.1431   39.2422   10.2435 C.ar    1  UNL1        0.0608
     13 N          15.9195   38.2350   10.7322 N.ar    1  UNL1       -0.2539
     14 N          17.7285   41.6103    9.0039 N.pl3   1  UNL1       -0.2927
     15 H          18.6740   41.7839    9.2164 H       1  UNL1        0.1541
     16 C          17.0829   42.5412    8.1268 C.ar    1  UNL1        0.1636
     17 C          15.4799   43.4360    6.8379 C.ar    1  UNL1        0.1079
     18 C          16.4646   44.4062    6.6453 C.ar    1  UNL1        0.0588
     19 N          15.8265   42.4061    7.6569 N.ar    1  UNL1       -0.2224
     20 S          17.8082   43.9307    7.5454 S.2     1  UNL1       -0.0508
     21 C          11.1224   41.2286   10.8281 C.3     1  UNL1        0.0992
     22 C           9.6439   41.4249   10.8105 C.ar    1  UNL1       -0.0046
     23 C           9.0220   41.8786    9.6318 C.ar    1  UNL1        0.0159
     24 C           7.6378   42.0378    9.6576 C.ar    1  UNL1        0.0795
     25 C           6.8946   41.7639   10.7766 C.ar    1  UNL1        0.0797
     26 C           7.4769   41.3091   11.9580 C.ar    1  UNL1        0.0185
     27 C           8.8735   41.1390   11.9639 C.ar    1  UNL1       -0.0013
     28 C           5.5839   42.4244    9.2273 C.ar    1  UNL1        0.3316
     29 C           7.1793   42.8513    7.3213 C.3     1  UNL1        0.1351
     30 C           4.4624   41.8500   11.4122 C.3     1  UNL1        0.1351
     31 N           5.5966   42.0047   10.5152 N.ar    1  UNL1       -0.2779
     32 N           6.8196   42.4556    8.6740 N.ar    1  UNL1       -0.2779
     33 O           4.5342   42.7506    8.6098 O.2     1  UNL1       -0.2463
@<TRIPOS>BOND
     1     7     8    1
     2     8    13   ar
     3     9    10   ar
     4    10    14    1
     5    11    12   ar
     6     1    12    1
     7     1     2    1
     8     2     3    1
     9     3     4    1
    10     4     6    1
    11     5     6    1
    12     5     1    1
    13    21     6    1
    14    21    22    1
    15    23    24   ar
    16    25    26   ar
    17    25    31   ar
    18    27    22   ar
    19    28    32   ar
    20    29    32    1
    21    30    31    1
    22    16    20   ar
    23    17    19   ar
    24    18    20   ar
    25    31    28   ar
    26    32    24   ar
    27    14    16    1
    28     8     9   ar
    29    10    11   ar
    30    12    13   ar
    31    22    23   ar
    32    24    25   ar
    33    26    27   ar
    34    28    33    2
    35    16    19   ar
    36    17    18   ar
    37    14    15    1
