@<TRIPOS>MOLECULE
MolPort-047-586-240 MCULE-2060819155 PubChem-157292296 PubChem-159458611 PubChem-57934984
 33 34 0 0 0
SMALL
GASTEIGER

@<TRIPOS>ATOM
      1 C          13.1420   40.0517    8.9692 C.ar    1  UNL1        0.0000
      2 C          12.0664   40.6506    8.3087 C.ar    1  UNL1        0.0000
      3 C          12.2689   41.7344    7.4477 C.ar    1  UNL1        0.0000
      4 C          13.5816   42.2013    7.2090 C.ar    1  UNL1        0.0000
      5 C          14.6536   41.5932    7.8801 C.ar    1  UNL1        0.0000
      6 C          14.4361   40.5316    8.7592 C.ar    1  UNL1        0.0000
      7 B          12.8968   38.8478    9.9409 B       1  UNL1        0.0000
      8 O          13.7376   38.7189   11.1192 O.3     1  UNL1        0.0000
      9 O          12.5257   37.5605    9.3778 O.3     1  UNL1        0.0000
     10 C          14.4467   37.5433   10.8298 C.3     1  UNL1        0.0000
     11 C          13.6540   36.7854    9.6852 C.3     1  UNL1        0.0000
     12 C          14.4676   36.5832    8.4050 C.3     1  UNL1        0.0000
     13 C          13.1617   35.4029   10.1040 C.3     1  UNL1        0.0000
     14 C          14.5534   36.7415   12.1240 C.3     1  UNL1        0.0000
     15 C          15.8765   37.9225   10.4390 C.3     1  UNL1        0.0000
     16 O          14.9697   44.9930    5.2662 O.2     1  UNL1        0.0000
     17 C          14.9034   44.1615    6.2108 C.2     1  UNL1        0.0000
     18 N          13.8101   43.2369    6.2405 N.am    1  UNL1        0.0000
     19 H          13.1441   43.3201    5.5202 H       1  UNL1        0.0000
     20 O          15.8800   44.1499    7.2182 O.3     1  UNL1        0.0000
     21 C          17.2263   43.7038    7.0417 C.3     1  UNL1        0.0000
     22 C          17.6250   43.7644    5.5773 C.3     1  UNL1        0.0000
     23 C          17.3960   42.2876    7.5638 C.3     1  UNL1        0.0000
     24 C          18.1449   44.6165    7.8260 C.3     1  UNL1        0.0000
     25 O          10.3239   40.3422    5.7931 O.2     1  UNL1        0.0000
     26 C          10.1210   41.5494    6.0997 C.2     1  UNL1        0.0000
     27 N          11.1259   42.2976    6.7906 N.am    1  UNL1        0.0000
     28 H          11.0245   43.2765    6.8168 H       1  UNL1        0.0000
     29 O           8.9298   42.1899    5.7335 O.3     1  UNL1        0.0000
     30 C           7.7221   42.1555    6.4976 C.3     1  UNL1        0.0000
     31 C           6.9175   40.9082    6.1754 C.3     1  UNL1        0.0000
     32 C           8.0261   42.2020    7.9853 C.3     1  UNL1        0.0000
     33 C           6.8885   43.3680    6.1412 C.3     1  UNL1        0.0000
@<TRIPOS>BOND
     1     7     8    1
     2     7     1    1
     3     7     9    1
     4    10     8    1
     5    10    11    1
     6    10    14    1
     7    10    15    1
     8    11     9    1
     9    11    12    1
    10    11    13    1
    11     2     3   ar
    12     3    27    1
    13     4     5   ar
    14     4    18    1
    15     6     1   ar
    16    17    20    1
    17    21    20    1
    18    21    22    1
    19    21    23    1
    20    21    24    1
    21    26    29    1
    22    30    29    1
    23    30    31    1
    24    30    32    1
    25    30    33    1
    26    18    17   am
    27    27    26   am
    28     1     2   ar
    29     3     4   ar
    30     5     6   ar
    31    17    16    2
    32    26    25    2
    33    18    19    1
    34    27    28    1
@<TRIPOS>MOLECULE
MolPort-047-586-240 MCULE-2060819155 PubChem-157292296 PubChem-159458611 PubChem-57934984
 33 34 0 0 0
SMALL
GASTEIGER

@<TRIPOS>ATOM
      1 C          14.3086   42.4912    7.4278 C.ar    1  UNL1        0.0000
      2 C          13.0196   42.6621    6.9165 C.ar    1  UNL1        0.0000
      3 C          12.0883   41.6191    6.9599 C.ar    1  UNL1        0.0000
      4 C          12.4410   40.3923    7.5673 C.ar    1  UNL1        0.0000
      5 C          13.7394   40.2319    8.0751 C.ar    1  UNL1        0.0000
      6 C          14.6691   41.2698    7.9999 C.ar    1  UNL1        0.0000
      7 B          15.3441   43.6645    7.3590 B       1  UNL1        0.0000
      8 O          15.9402   43.9955    6.0756 O.3     1  UNL1        0.0000
      9 O          16.2684   43.8457    8.4658 O.3     1  UNL1        0.0000
     10 C          17.2812   43.6429    6.2905 C.3     1  UNL1        0.0000
     11 C          17.4954   43.5411    7.8578 C.3     1  UNL1        0.0000
     12 C          17.9392   42.1541    8.3282 C.3     1  UNL1        0.0000
     13 C          18.5305   44.5272    8.3920 C.3     1  UNL1        0.0000
     14 C          18.1480   44.7113    5.6300 C.3     1  UNL1        0.0000
     15 C          17.5651   42.3369    5.5456 C.3     1  UNL1        0.0000
     16 O          10.3876   37.6079    8.8022 O.2     1  UNL1        0.0000
     17 C          11.3341   38.4397    8.8114 C.2     1  UNL1        0.0000
     18 N          11.4568   39.3574    7.7188 N.am    1  UNL1        0.0000
     19 H          10.7961   39.2694    6.9942 H       1  UNL1        0.0000
     20 O          12.2544   38.4584    9.8704 O.3     1  UNL1        0.0000
     21 C          13.0723   37.3521   10.2577 C.3     1  UNL1        0.0000
     22 C          14.0161   37.7485   11.3798 C.3     1  UNL1        0.0000
     23 C          13.8690   36.8323    9.0737 C.3     1  UNL1        0.0000
     24 C          12.1756   36.2393   10.7571 C.3     1  UNL1        0.0000
     25 O          10.6348   39.9857    5.0422 O.2     1  UNL1        0.0000
     26 C          10.0489   40.9582    5.5930 C.2     1  UNL1        0.0000
     27 N          10.7785   41.8609    6.4295 N.am    1  UNL1        0.0000
     28 H          10.3471   42.7155    6.6590 H       1  UNL1        0.0000
     29 O           8.6874   41.1963    5.3629 O.3     1  UNL1        0.0000
     30 C           7.6697   41.1186    6.3638 C.3     1  UNL1        0.0000
     31 C           6.6828   40.0097    6.0420 C.3     1  UNL1        0.0000
     32 C           8.2810   40.8819    7.7343 C.3     1  UNL1        0.0000
     33 C           6.9192   42.4330    6.3949 C.3     1  UNL1        0.0000
@<TRIPOS>BOND
     1     7     8    1
     2     7     1    1
     3     7     9    1
     4    10     8    1
     5    10    11    1
     6    10    14    1
     7    10    15    1
     8    11     9    1
     9    11    12    1
    10    11    13    1
    11     2     3   ar
    12     3    27    1
    13     4     5   ar
    14     4    18    1
    15     6     1   ar
    16    17    20    1
    17    21    20    1
    18    21    22    1
    19    21    23    1
    20    21    24    1
    21    26    29    1
    22    30    29    1
    23    30    31    1
    24    30    32    1
    25    30    33    1
    26    18    17   am
    27    27    26   am
    28     1     2   ar
    29     3     4   ar
    30     5     6   ar
    31    17    16    2
    32    26    25    2
    33    18    19    1
    34    27    28    1
@<TRIPOS>MOLECULE
MolPort-047-586-240 MCULE-2060819155 PubChem-157292296 PubChem-159458611 PubChem-57934984
 33 34 0 0 0
SMALL
GASTEIGER

@<TRIPOS>ATOM
      1 C          10.8485   41.1021    9.4064 C.ar    1  UNL1        0.0000
      2 C          12.0530   41.2611    8.7163 C.ar    1  UNL1        0.0000
      3 C          13.2580   40.8121    9.2668 C.ar    1  UNL1        0.0000
      4 C          13.2518   40.1507   10.5162 C.ar    1  UNL1        0.0000
      5 C          12.0363   39.9991   11.2009 C.ar    1  UNL1        0.0000
      6 C          10.8444   40.4772   10.6548 C.ar    1  UNL1        0.0000
      7 B           9.5096   41.6230    8.7823 B       1  UNL1        0.0000
      8 O           9.3767   43.0421    8.4991 O.3     1  UNL1        0.0000
      9 O           8.2585   41.0211    9.2119 O.3     1  UNL1        0.0000
     10 C           8.3800   43.4177    9.4124 C.3     1  UNL1        0.0000
     11 C           7.6491   42.0920    9.8827 C.3     1  UNL1        0.0000
     12 C           7.7450   41.8391   11.3889 C.3     1  UNL1        0.0000
     13 C           6.1630   42.0654    9.5365 C.3     1  UNL1        0.0000
     14 C           7.4527   44.3996    8.7016 C.3     1  UNL1        0.0000
     15 C           9.0365   44.1954   10.5548 C.3     1  UNL1        0.0000
     16 O          15.8558   37.8732   11.7519 O.2     1  UNL1        0.0000
     17 C          14.7168   38.2064   11.3283 C.2     1  UNL1        0.0000
     18 N          14.4659   39.5856   11.0351 N.am    1  UNL1        0.0000
     19 H          15.2045   40.2132   11.2077 H       1  UNL1        0.0000
     20 O          13.7119   37.2424   11.1561 O.3     1  UNL1        0.0000
     21 C          13.3530   36.6554    9.9033 C.3     1  UNL1        0.0000
     22 C          11.9226   37.0087    9.5344 C.3     1  UNL1        0.0000
     23 C          13.5152   35.1460    9.9509 C.3     1  UNL1        0.0000
     24 C          14.2725   37.2021    8.8321 C.3     1  UNL1        0.0000
     25 O          13.7743   42.8451    7.2522 O.2     1  UNL1        0.0000
     26 C          14.7159   42.0911    7.6228 C.2     1  UNL1        0.0000
     27 N          14.4582   40.9939    8.5041 N.am    1  UNL1        0.0000
     28 H          15.1605   40.3099    8.5939 H       1  UNL1        0.0000
     29 O          16.0190   42.2874    7.1465 O.3     1  UNL1        0.0000
     30 C          16.6571   43.5613    7.0306 C.3     1  UNL1        0.0000
     31 C          17.8326   43.4884    6.0714 C.3     1  UNL1        0.0000
     32 C          15.6708   44.6151    6.5568 C.3     1  UNL1        0.0000
     33 C          17.1759   43.9692    8.3931 C.3     1  UNL1        0.0000
@<TRIPOS>BOND
     1     7     8    1
     2     7     1    1
     3     7     9    1
     4    10     8    1
     5    10    11    1
     6    10    14    1
     7    10    15    1
     8    11     9    1
     9    11    12    1
    10    11    13    1
    11     2     3   ar
    12     3    27    1
    13     4     5   ar
    14     4    18    1
    15     6     1   ar
    16    17    20    1
    17    21    20    1
    18    21    22    1
    19    21    23    1
    20    21    24    1
    21    26    29    1
    22    30    29    1
    23    30    31    1
    24    30    32    1
    25    30    33    1
    26    18    17   am
    27    27    26   am
    28     1     2   ar
    29     3     4   ar
    30     5     6   ar
    31    17    16    2
    32    26    25    2
    33    18    19    1
    34    27    28    1
@<TRIPOS>MOLECULE
MolPort-047-586-240 MCULE-2060819155 PubChem-157292296 PubChem-159458611 PubChem-57934984
 33 34 0 0 0
SMALL
GASTEIGER

@<TRIPOS>ATOM
      1 C          14.2112   42.4087    7.8030 C.ar    1  UNL1        0.0000
      2 C          13.9327   41.1471    8.3349 C.ar    1  UNL1        0.0000
      3 C          12.7011   40.8828    8.9433 C.ar    1  UNL1        0.0000
      4 C          11.7104   41.8904    8.9819 C.ar    1  UNL1        0.0000
      5 C          12.0027   43.1543    8.4466 C.ar    1  UNL1        0.0000
      6 C          13.2455   43.4149    7.8681 C.ar    1  UNL1        0.0000
      7 B          15.6004   42.6926    7.1373 B       1  UNL1        0.0000
      8 O          16.5723   41.6148    7.0625 O.3     1  UNL1        0.0000
      9 O          16.2220   43.9897    7.3450 O.3     1  UNL1        0.0000
     10 C          17.5783   42.0849    7.9201 C.3     1  UNL1        0.0000
     11 C          17.3464   43.6416    8.1084 C.3     1  UNL1        0.0000
     12 C          17.0940   44.0539    9.5603 C.3     1  UNL1        0.0000
     13 C          18.5158   44.4909    7.6180 C.3     1  UNL1        0.0000
     14 C          18.9219   41.7469    7.2800 C.3     1  UNL1        0.0000
     15 C          17.5121   41.2916    9.2268 C.3     1  UNL1        0.0000
     16 O           8.1368   41.1293    9.3624 O.2     1  UNL1        0.0000
     17 C           9.1986   41.4188    8.7487 C.2     1  UNL1        0.0000
     18 N          10.4046   41.5936    9.5011 N.am    1  UNL1        0.0000
     19 H          10.3307   41.5002   10.4783 H       1  UNL1        0.0000
     20 O           9.1943   41.5748    7.3543 O.3     1  UNL1        0.0000
     21 C           9.3206   40.5048    6.4151 C.3     1  UNL1        0.0000
     22 C           9.8537   39.2546    7.0931 C.3     1  UNL1        0.0000
     23 C          10.2365   40.9003    5.2698 C.3     1  UNL1        0.0000
     24 C           7.9515   40.1951    5.8481 C.3     1  UNL1        0.0000
     25 O          14.2477   39.4930   10.9768 O.2     1  UNL1        0.0000
     26 C          13.1761   38.9758   10.5564 C.2     1  UNL1        0.0000
     27 N          12.4718   39.5651    9.4594 N.am    1  UNL1        0.0000
     28 H          11.7746   39.0229    9.0244 H       1  UNL1        0.0000
     29 O          12.6801   37.7955   11.1259 O.3     1  UNL1        0.0000
     30 C          12.2451   36.6557   10.3809 C.3     1  UNL1        0.0000
     31 C          13.2902   36.2536    9.3546 C.3     1  UNL1        0.0000
     32 C          11.9567   35.4866   11.3071 C.3     1  UNL1        0.0000
     33 C          10.9688   37.0131    9.6494 C.3     1  UNL1        0.0000
@<TRIPOS>BOND
     1     7     8    1
     2     7     1    1
     3     7     9    1
     4    10     8    1
     5    10    11    1
     6    10    14    1
     7    10    15    1
     8    11     9    1
     9    11    12    1
    10    11    13    1
    11     2     3   ar
    12     3    27    1
    13     4     5   ar
    14     4    18    1
    15     6     1   ar
    16    17    20    1
    17    21    20    1
    18    21    22    1
    19    21    23    1
    20    21    24    1
    21    26    29    1
    22    30    29    1
    23    30    31    1
    24    30    32    1
    25    30    33    1
    26    18    17   am
    27    27    26   am
    28     1     2   ar
    29     3     4   ar
    30     5     6   ar
    31    17    16    2
    32    26    25    2
    33    18    19    1
    34    27    28    1
@<TRIPOS>MOLECULE
MolPort-047-586-240 MCULE-2060819155 PubChem-157292296 PubChem-159458611 PubChem-57934984
 33 34 0 0 0
SMALL
GASTEIGER

@<TRIPOS>ATOM
      1 C          10.9138   41.1664   10.3621 C.ar    1  UNL1        0.0000
      2 C           9.6102   40.6729   10.2671 C.ar    1  UNL1        0.0000
      3 C           8.5217   41.5439   10.1517 C.ar    1  UNL1        0.0000
      4 C           8.7463   42.9380   10.0866 C.ar    1  UNL1        0.0000
      5 C          10.0598   43.4219   10.1854 C.ar    1  UNL1        0.0000
      6 C          11.1353   42.5445   10.3295 C.ar    1  UNL1        0.0000
      7 B          12.1207   40.1782   10.5048 B       1  UNL1        0.0000
      8 O          13.4711   40.7114   10.4422 O.3     1  UNL1        0.0000
      9 O          12.0153   38.8569    9.9088 O.3     1  UNL1        0.0000
     10 C          13.9418   40.1423    9.2492 C.3     1  UNL1        0.0000
     11 C          12.9849   38.9285    8.8974 C.3     1  UNL1        0.0000
     12 C          12.2723   39.0783    7.5514 C.3     1  UNL1        0.0000
     13 C          13.7048   37.5835    8.8548 C.3     1  UNL1        0.0000
     14 C          15.3905   39.7224    9.4814 C.3     1  UNL1        0.0000
     15 C          13.9757   41.2295    8.1731 C.3     1  UNL1        0.0000
     16 O           6.1291   45.0134    8.5575 O.2     1  UNL1        0.0000
     17 C           7.1255   44.2424    8.5840 C.2     1  UNL1        0.0000
     18 N           7.6467   43.8320    9.8533 N.am    1  UNL1        0.0000
     19 H           7.2041   44.2022   10.6510 H       1  UNL1        0.0000
     20 O           7.7165   43.8025    7.3899 O.3     1  UNL1        0.0000
     21 C           7.3105   42.6428    6.6597 C.3     1  UNL1        0.0000
     22 C           6.2735   41.8527    7.4390 C.3     1  UNL1        0.0000
     23 C           8.5052   41.7582    6.3483 C.3     1  UNL1        0.0000
     24 C           6.6902   43.0874    5.3522 C.3     1  UNL1        0.0000
     25 O           6.3596   41.7299   12.0881 O.2     1  UNL1        0.0000
     26 C           6.1350   41.2079   10.9614 C.2     1  UNL1        0.0000
     27 N           7.2099   40.9752   10.0463 N.am    1  UNL1        0.0000
     28 H           7.0349   40.3773    9.2839 H       1  UNL1        0.0000
     29 O           4.8404   40.8088   10.6033 O.3     1  UNL1        0.0000
     30 C           3.7236   41.6927   10.4812 C.3     1  UNL1        0.0000
     31 C           2.7267   41.1621    9.4654 C.3     1  UNL1        0.0000
     32 C           3.0388   41.8819   11.8240 C.3     1  UNL1        0.0000
     33 C           4.2219   43.0402   10.0039 C.3     1  UNL1        0.0000
@<TRIPOS>BOND
     1     7     8    1
     2     7     1    1
     3     7     9    1
     4    10     8    1
     5    10    11    1
     6    10    14    1
     7    10    15    1
     8    11     9    1
     9    11    12    1
    10    11    13    1
    11     2     3   ar
    12     3    27    1
    13     4     5   ar
    14     4    18    1
    15     6     1   ar
    16    17    20    1
    17    21    20    1
    18    21    22    1
    19    21    23    1
    20    21    24    1
    21    26    29    1
    22    30    29    1
    23    30    31    1
    24    30    32    1
    25    30    33    1
    26    18    17   am
    27    27    26   am
    28     1     2   ar
    29     3     4   ar
    30     5     6   ar
    31    17    16    2
    32    26    25    2
    33    18    19    1
    34    27    28    1
@<TRIPOS>MOLECULE
MolPort-047-586-240 MCULE-2060819155 PubChem-157292296 PubChem-159458611 PubChem-57934984
 33 34 0 0 0
SMALL
GASTEIGER

@<TRIPOS>ATOM
      1 C          10.7517   41.3600    9.3677 C.ar    1  UNL1        0.0000
      2 C          11.7348   41.6073    8.4062 C.ar    1  UNL1        0.0000
      3 C          13.0558   41.1950    8.6108 C.ar    1  UNL1        0.0000
      4 C          13.3913   40.4813    9.7840 C.ar    1  UNL1        0.0000
      5 C          12.3957   40.2410   10.7434 C.ar    1  UNL1        0.0000
      6 C          11.0876   40.6828   10.5414 C.ar    1  UNL1        0.0000
      7 B           9.2800   41.8405    9.1296 B       1  UNL1        0.0000
      8 O           8.2052   40.8659    9.2114 O.3     1  UNL1        0.0000
      9 O           9.0325   42.8595    8.1233 O.3     1  UNL1        0.0000
     10 C           7.7565   40.8316    7.8825 C.3     1  UNL1        0.0000
     11 C           8.3022   42.1371    7.1679 C.3     1  UNL1        0.0000
     12 C           9.2162   41.8479    5.9751 C.3     1  UNL1        0.0000
     13 C           7.1949   43.0501    6.6490 C.3     1  UNL1        0.0000
     14 C           6.2328   40.7519    7.9145 C.3     1  UNL1        0.0000
     15 C           8.2423   39.5309    7.2396 C.3     1  UNL1        0.0000
     16 O          16.3833   38.3501    9.7872 O.2     1  UNL1        0.0000
     17 C          15.1712   38.6414    9.6035 C.2     1  UNL1        0.0000
     18 N          14.7173   39.9550    9.9495 N.am    1  UNL1        0.0000
     19 H          15.3854   40.5618   10.3426 H       1  UNL1        0.0000
     20 O          14.2831   37.6912    9.0772 O.3     1  UNL1        0.0000
     21 C          13.5739   36.7225    9.8527 C.3     1  UNL1        0.0000
     22 C          13.9916   35.3143    9.4661 C.3     1  UNL1        0.0000
     23 C          12.0743   36.8830    9.6725 C.3     1  UNL1        0.0000
     24 C          13.9060   36.9360   11.3142 C.3     1  UNL1        0.0000
     25 O          13.4036   43.6800    7.1403 O.2     1  UNL1        0.0000
     26 C          14.2394   42.7478    6.9822 C.2     1  UNL1        0.0000
     27 N          14.0156   41.4681    7.5814 N.am    1  UNL1        0.0000
     28 H          14.5639   40.7156    7.2616 H       1  UNL1        0.0000
     29 O          15.3765   42.9344    6.1850 O.3     1  UNL1        0.0000
     30 C          16.3209   43.9941    6.3541 C.3     1  UNL1        0.0000
     31 C          17.5751   43.7317    5.5385 C.3     1  UNL1        0.0000
     32 C          15.7124   45.3258    5.9486 C.3     1  UNL1        0.0000
     33 C          16.7078   44.0698    7.8158 C.3     1  UNL1        0.0000
@<TRIPOS>BOND
     1     7     8    1
     2     7     1    1
     3     7     9    1
     4    10     8    1
     5    10    11    1
     6    10    14    1
     7    10    15    1
     8    11     9    1
     9    11    12    1
    10    11    13    1
    11     2     3   ar
    12     3    27    1
    13     4     5   ar
    14     4    18    1
    15     6     1   ar
    16    17    20    1
    17    21    20    1
    18    21    22    1
    19    21    23    1
    20    21    24    1
    21    26    29    1
    22    30    29    1
    23    30    31    1
    24    30    32    1
    25    30    33    1
    26    18    17   am
    27    27    26   am
    28     1     2   ar
    29     3     4   ar
    30     5     6   ar
    31    17    16    2
    32    26    25    2
    33    18    19    1
    34    27    28    1
@<TRIPOS>MOLECULE
MolPort-047-586-240 MCULE-2060819155 PubChem-157292296 PubChem-159458611 PubChem-57934984
 33 34 0 0 0
SMALL
GASTEIGER

@<TRIPOS>ATOM
      1 C          12.9875   42.0177    7.8361 C.ar    1  UNL1        0.0000
      2 C          13.5729   40.7506    7.8970 C.ar    1  UNL1        0.0000
      3 C          12.7846   39.5955    7.8610 C.ar    1  UNL1        0.0000
      4 C          11.3830   39.7103    7.7174 C.ar    1  UNL1        0.0000
      5 C          10.8065   40.9884    7.6596 C.ar    1  UNL1        0.0000
      6 C          11.6006   42.1339    7.7259 C.ar    1  UNL1        0.0000
      7 B          13.8831   43.3016    7.8917 B       1  UNL1        0.0000
      8 O          13.7860   44.2682    6.8110 O.3     1  UNL1        0.0000
      9 O          15.2329   43.1888    8.4186 O.3     1  UNL1        0.0000
     10 C          15.0541   44.1569    6.2210 C.3     1  UNL1        0.0000
     11 C          16.0020   43.4457    7.2738 C.3     1  UNL1        0.0000
     12 C          16.5891   42.1229    6.7764 C.3     1  UNL1        0.0000
     13 C          17.1869   44.3080    7.7000 C.3     1  UNL1        0.0000
     14 C          15.5123   45.5643    5.8490 C.3     1  UNL1        0.0000
     15 C          14.9117   43.3886    4.9055 C.3     1  UNL1        0.0000
     16 O           8.6077   37.3503    7.2456 O.2     1  UNL1        0.0000
     17 C           9.1568   38.4741    7.3986 C.2     1  UNL1        0.0000
     18 N          10.5782   38.5307    7.5644 N.am    1  UNL1        0.0000
     19 H          11.0544   37.6690    7.5746 H       1  UNL1        0.0000
     20 O           8.3858   39.6463    7.4141 O.3     1  UNL1        0.0000
     21 C           7.7131   40.1933    6.2779 C.3     1  UNL1        0.0000
     22 C           7.6212   41.7057    6.3844 C.3     1  UNL1        0.0000
     23 C           6.3213   39.6009    6.1406 C.3     1  UNL1        0.0000
     24 C           8.5051   39.8483    5.0347 C.3     1  UNL1        0.0000
     25 O          13.2216   37.9355   10.2088 O.2     1  UNL1        0.0000
     26 C          13.5168   37.4815    9.0690 C.2     1  UNL1        0.0000
     27 N          13.4459   38.3247    7.9154 N.am    1  UNL1        0.0000
     28 H          13.8861   38.0071    7.0939 H       1  UNL1        0.0000
     29 O          13.9588   36.1604    8.9179 O.3     1  UNL1        0.0000
     30 C          15.2787   35.7875    8.5152 C.3     1  UNL1        0.0000
     31 C          15.4508   35.9560    7.0155 C.3     1  UNL1        0.0000
     32 C          16.3187   36.6166    9.2491 C.3     1  UNL1        0.0000
     33 C          15.4973   34.3299    8.8611 C.3     1  UNL1        0.0000
@<TRIPOS>BOND
     1     7     8    1
     2     7     1    1
     3     7     9    1
     4    10     8    1
     5    10    11    1
     6    10    14    1
     7    10    15    1
     8    11     9    1
     9    11    12    1
    10    11    13    1
    11     2     3   ar
    12     3    27    1
    13     4     5   ar
    14     4    18    1
    15     6     1   ar
    16    17    20    1
    17    21    20    1
    18    21    22    1
    19    21    23    1
    20    21    24    1
    21    26    29    1
    22    30    29    1
    23    30    31    1
    24    30    32    1
    25    30    33    1
    26    18    17   am
    27    27    26   am
    28     1     2   ar
    29     3     4   ar
    30     5     6   ar
    31    17    16    2
    32    26    25    2
    33    18    19    1
    34    27    28    1
@<TRIPOS>MOLECULE
MolPort-047-586-240 MCULE-2060819155 PubChem-157292296 PubChem-159458611 PubChem-57934984
 33 34 0 0 0
SMALL
GASTEIGER

@<TRIPOS>ATOM
      1 C          12.7890   42.2161    7.6318 C.ar    1  UNL1        0.0000
      2 C          11.4014   42.3780    7.6119 C.ar    1  UNL1        0.0000
      3 C          10.5526   41.2692    7.5289 C.ar    1  UNL1        0.0000
      4 C          11.1034   39.9674    7.5089 C.ar    1  UNL1        0.0000
      5 C          12.4986   39.8177    7.5269 C.ar    1  UNL1        0.0000
      6 C          13.3361   40.9326    7.5804 C.ar    1  UNL1        0.0000
      7 B          13.7261   43.4687    7.7110 B       1  UNL1        0.0000
      8 O          13.7348   44.4057    6.6002 O.3     1  UNL1        0.0000
      9 O          15.0339   43.3243    8.3282 O.3     1  UNL1        0.0000
     10 C          15.0334   44.2325    6.0980 C.3     1  UNL1        0.0000
     11 C          15.8844   43.5200    7.2297 C.3     1  UNL1        0.0000
     12 C          16.4530   42.1632    6.8083 C.3     1  UNL1        0.0000
     13 C          17.0703   44.3524    7.7091 C.3     1  UNL1        0.0000
     14 C          15.5663   45.6114    5.7186 C.3     1  UNL1        0.0000
     15 C          14.9480   43.4311    4.7974 C.3     1  UNL1        0.0000
     16 O           8.6463   37.3595    6.6993 O.2     1  UNL1        0.0000
     17 C           9.3110   38.4159    6.5261 C.2     1  UNL1        0.0000
     18 N          10.2383   38.8215    7.5394 N.am    1  UNL1        0.0000
     19 H          10.2880   38.2542    8.3426 H       1  UNL1        0.0000
     20 O           9.1374   39.1831    5.3643 O.3     1  UNL1        0.0000
     21 C           9.9805   39.1178    4.2120 C.3     1  UNL1        0.0000
     22 C          10.9550   37.9581    4.3243 C.3     1  UNL1        0.0000
     23 C          10.7451   40.4176    4.0310 C.3     1  UNL1        0.0000
     24 C           9.1137   38.8981    2.9905 C.3     1  UNL1        0.0000
     25 O           8.7854   41.4261    9.8335 O.2     1  UNL1        0.0000
     26 C           8.3328   41.7058    8.6892 C.2     1  UNL1        0.0000
     27 N           9.1377   41.5006    7.5244 N.am    1  UNL1        0.0000
     28 H           8.6843   41.5200    6.6507 H       1  UNL1        0.0000
     29 O           7.0235   42.1804    8.5344 O.3     1  UNL1        0.0000
     30 C           6.6840   43.5214    8.1739 C.3     1  UNL1        0.0000
     31 C           7.6360   44.5103    8.8243 C.3     1  UNL1        0.0000
     32 C           6.7127   43.6957    6.6650 C.3     1  UNL1        0.0000
     33 C           5.2817   43.8146    8.6631 C.3     1  UNL1        0.0000
@<TRIPOS>BOND
     1     7     8    1
     2     7     1    1
     3     7     9    1
     4    10     8    1
     5    10    11    1
     6    10    14    1
     7    10    15    1
     8    11     9    1
     9    11    12    1
    10    11    13    1
    11     2     3   ar
    12     3    27    1
    13     4     5   ar
    14     4    18    1
    15     6     1   ar
    16    17    20    1
    17    21    20    1
    18    21    22    1
    19    21    23    1
    20    21    24    1
    21    26    29    1
    22    30    29    1
    23    30    31    1
    24    30    32    1
    25    30    33    1
    26    18    17   am
    27    27    26   am
    28     1     2   ar
    29     3     4   ar
    30     5     6   ar
    31    17    16    2
    32    26    25    2
    33    18    19    1
    34    27    28    1
@<TRIPOS>MOLECULE
MolPort-047-586-240 MCULE-2060819155 PubChem-157292296 PubChem-159458611 PubChem-57934984
 33 34 0 0 0
SMALL
GASTEIGER

@<TRIPOS>ATOM
      1 C          10.8815   40.3720    9.6476 C.ar    1  UNL1        0.0000
      2 C           9.5126   40.4045    9.9250 C.ar    1  UNL1        0.0000
      3 C           8.8539   41.6202   10.1373 C.ar    1  UNL1        0.0000
      4 C           9.5723   42.8327   10.0267 C.ar    1  UNL1        0.0000
      5 C          10.9473   42.7871    9.7500 C.ar    1  UNL1        0.0000
      6 C          11.5994   41.5668    9.5690 C.ar    1  UNL1        0.0000
      7 B          11.6070   39.0015    9.4262 B       1  UNL1        0.0000
      8 O          11.8562   38.1494   10.5766 O.3     1  UNL1        0.0000
      9 O          12.6684   38.9254    8.4363 O.3     1  UNL1        0.0000
     10 C          13.2571   38.1787   10.6488 C.3     1  UNL1        0.0000
     11 C          13.7896   38.6912    9.2465 C.3     1  UNL1        0.0000
     12 C          14.6040   39.9839    9.3338 C.3     1  UNL1        0.0000
     13 C          14.6725   37.6754    8.5269 C.3     1  UNL1        0.0000
     14 C          13.7283   36.7693   10.9960 C.3     1  UNL1        0.0000
     15 C          13.6641   39.0706   11.8235 C.3     1  UNL1        0.0000
     16 O           7.4928   45.7952    9.3994 O.2     1  UNL1        0.0000
     17 C           8.0532   44.6983    9.1337 C.2     1  UNL1        0.0000
     18 N           8.8819   44.0878   10.1295 N.am    1  UNL1        0.0000
     19 H           8.9899   44.5812   10.9746 H       1  UNL1        0.0000
     20 O           7.8732   44.0927    7.8809 O.3     1  UNL1        0.0000
     21 C           6.6105   43.6926    7.3439 C.3     1  UNL1        0.0000
     22 C           5.5394   44.7201    7.6667 C.3     1  UNL1        0.0000
     23 C           6.2017   42.3342    7.8867 C.3     1  UNL1        0.0000
     24 C           6.7361   43.5887    5.8389 C.3     1  UNL1        0.0000
     25 O           7.5607   41.2737   12.7192 O.2     1  UNL1        0.0000
     26 C           6.8569   41.5519   11.7094 C.2     1  UNL1        0.0000
     27 N           7.4461   41.5875   10.4062 N.am    1  UNL1        0.0000
     28 H           6.8367   41.5898    9.6330 H       1  UNL1        0.0000
     29 O           5.4819   41.7884   11.8393 O.3     1  UNL1        0.0000
     30 C           4.4667   41.0925   11.1122 C.3     1  UNL1        0.0000
     31 C           4.9795   40.6663    9.7474 C.3     1  UNL1        0.0000
     32 C           3.9902   39.8753   11.8862 C.3     1  UNL1        0.0000
     33 C           3.2897   42.0233   10.9117 C.3     1  UNL1        0.0000
@<TRIPOS>BOND
     1     7     8    1
     2     7     1    1
     3     7     9    1
     4    10     8    1
     5    10    11    1
     6    10    14    1
     7    10    15    1
     8    11     9    1
     9    11    12    1
    10    11    13    1
    11     2     3   ar
    12     3    27    1
    13     4     5   ar
    14     4    18    1
    15     6     1   ar
    16    17    20    1
    17    21    20    1
    18    21    22    1
    19    21    23    1
    20    21    24    1
    21    26    29    1
    22    30    29    1
    23    30    31    1
    24    30    32    1
    25    30    33    1
    26    18    17   am
    27    27    26   am
    28     1     2   ar
    29     3     4   ar
    30     5     6   ar
    31    17    16    2
    32    26    25    2
    33    18    19    1
    34    27    28    1
@<TRIPOS>MOLECULE
MolPort-047-586-240 MCULE-2060819155 PubChem-157292296 PubChem-159458611 PubChem-57934984
 33 34 0 0 0
SMALL
GASTEIGER

@<TRIPOS>ATOM
      1 C          14.2580   42.9084    6.9621 C.ar    1  UNL1        0.0000
      2 C          14.3866   41.6935    7.6401 C.ar    1  UNL1        0.0000
      3 C          13.3671   40.7367    7.5941 C.ar    1  UNL1        0.0000
      4 C          12.2121   40.9833    6.8173 C.ar    1  UNL1        0.0000
      5 C          12.0934   42.2081    6.1427 C.ar    1  UNL1        0.0000
      6 C          13.1043   43.1669    6.2197 C.ar    1  UNL1        0.0000
      7 B          15.4028   43.9750    7.0351 B       1  UNL1        0.0000
      8 O          16.1697   44.2597    5.8340 O.3     1  UNL1        0.0000
      9 O          16.2087   44.0526    8.2420 O.3     1  UNL1        0.0000
     10 C          17.4374   43.7749    6.1898 C.3     1  UNL1        0.0000
     11 C          17.4617   43.6356    7.7686 C.3     1  UNL1        0.0000
     12 C          17.7136   42.2068    8.2553 C.3     1  UNL1        0.0000
     13 C          18.5196   44.5095    8.4366 C.3     1  UNL1        0.0000
     14 C          18.4724   44.7601    5.6538 C.3     1  UNL1        0.0000
     15 C          17.6769   42.4555    5.4530 C.3     1  UNL1        0.0000
     16 O           9.1917   38.9129    7.1086 O.2     1  UNL1        0.0000
     17 C           9.9734   39.8628    7.3816 C.2     1  UNL1        0.0000
     18 N          11.2134   39.9615    6.6718 N.am    1  UNL1        0.0000
     19 H          11.4012   39.2534    6.0141 H       1  UNL1        0.0000
     20 O           9.6359   40.8003    8.3694 O.3     1  UNL1        0.0000
     21 C           8.5748   41.7516    8.2603 C.3     1  UNL1        0.0000
     22 C           8.9010   43.0125    9.0419 C.3     1  UNL1        0.0000
     23 C           7.2685   41.1592    8.7598 C.3     1  UNL1        0.0000
     24 C           8.4059   42.1224    6.8023 C.3     1  UNL1        0.0000
     25 O          15.7738   39.8627    8.9735 O.2     1  UNL1        0.0000
     26 C          14.7190   39.1782    9.0800 C.2     1  UNL1        0.0000
     27 N          13.5642   39.5053    8.3013 N.am    1  UNL1        0.0000
     28 H          12.8484   38.8316    8.2467 H       1  UNL1        0.0000
     29 O          14.6723   38.0636    9.9279 O.3     1  UNL1        0.0000
     30 C          14.4129   38.1229   11.3324 C.3     1  UNL1        0.0000
     31 C          13.4891   39.2833   11.6598 C.3     1  UNL1        0.0000
     32 C          13.7984   36.8222   11.8207 C.3     1  UNL1        0.0000
     33 C          15.7240   38.3354   12.0588 C.3     1  UNL1        0.0000
@<TRIPOS>BOND
     1     7     8    1
     2     7     1    1
     3     7     9    1
     4    10     8    1
     5    10    11    1
     6    10    14    1
     7    10    15    1
     8    11     9    1
     9    11    12    1
    10    11    13    1
    11     2     3   ar
    12     3    27    1
    13     4     5   ar
    14     4    18    1
    15     6     1   ar
    16    17    20    1
    17    21    20    1
    18    21    22    1
    19    21    23    1
    20    21    24    1
    21    26    29    1
    22    30    29    1
    23    30    31    1
    24    30    32    1
    25    30    33    1
    26    18    17   am
    27    27    26   am
    28     1     2   ar
    29     3     4   ar
    30     5     6   ar
    31    17    16    2
    32    26    25    2
    33    18    19    1
    34    27    28    1
