@<TRIPOS>MOLECULE
MolPort-007-671-450 ChemDiv-C795-0043 MCULE-6412679810 PubChem-20885894 ZINC000005135296 ZINC05135296
 27 28 0 0 0
SMALL
GASTEIGER

@<TRIPOS>ATOM
      1 C           8.7597   41.1986    7.7639 C.ar    1  UNL1        0.1868
      2 C          10.8408   41.5546    6.6353 C.ar    1  UNL1        0.1904
      3 N           9.3632   40.0491    7.3825 N.ar    1  UNL1       -0.1242
      4 N          10.5217   40.2469    6.7563 N.ar    1  UNL1       -0.1240
      5 S           9.6690   42.5510    7.3159 S.2     1  UNL1       -0.0154
      6 C          13.2278   42.4193    6.6866 C.2     1  UNL1        0.3096
      7 N          12.0293   42.0395    6.0031 N.am    1  UNL1       -0.2468
      8 N          14.3420   42.8880    5.9168 N.am    1  UNL1       -0.2680
      9 O          13.2989   42.3417    7.9430 O.2     1  UNL1       -0.2521
     10 H          12.0220   42.1179    5.0217 H       1  UNL1        0.1584
     11 H          14.2190   42.9233    4.9407 H       1  UNL1        0.1564
     12 C          15.6176   43.3112    6.4184 C.ar    1  UNL1        0.0517
     13 C          15.8509   43.2544    7.7971 C.ar    1  UNL1        0.0170
     14 C          17.0815   43.6580    8.3241 C.ar    1  UNL1        0.0309
     15 C          18.0879   44.1220    7.4727 C.ar    1  UNL1        0.1402
     16 C          17.8638   44.1822    6.0948 C.ar    1  UNL1        0.0309
     17 C          16.6331   43.7783    5.5694 C.ar    1  UNL1        0.0170
     18 F          19.2800   44.5131    7.9830 F       1  UNL1       -0.2042
     19 N           7.4949   41.2425    8.4438 N.pl3   1  UNL1       -0.2868
     20 C           6.4836   40.2398    8.1259 C.3     1  UNL1        0.0926
     21 C           6.4389   41.7052    6.1075 C.3     1  UNL1        0.0018
     22 C           6.0113   40.3707    6.6870 C.3     1  UNL1        0.0198
     23 C           6.6116   39.2540    5.8600 C.3     1  UNL1        0.0018
     24 C           7.3673   41.9744    9.7045 C.3     1  UNL1        0.0926
     25 C           6.3531   43.1212    9.6349 C.3     1  UNL1        0.0198
     26 C           6.6597   44.1182    8.5335 C.3     1  UNL1        0.0018
     27 C           4.9310   42.6134    9.5085 C.3     1  UNL1        0.0018
@<TRIPOS>BOND
     1    21    22    1
     2    22    23    1
     3    22    20    1
     4    20    19    1
     5    24    19    1
     6    24    25    1
     7    25    26    1
     8    25    27    1
     9     1     5   ar
    10     2     7    1
    11     2     5   ar
    12     6     8   am
    13    13    14   ar
    14    15    18    1
    15    15    16   ar
    16    17    12   ar
    17    19     1    1
    18     3     4   ar
    19     7     6   am
    20     8    12    1
    21     1     3   ar
    22     2     4   ar
    23     6     9    2
    24    12    13   ar
    25    14    15   ar
    26    16    17   ar
    27     7    10    1
    28     8    11    1
@<TRIPOS>MOLECULE
MolPort-007-671-450 ChemDiv-C795-0043 MCULE-6412679810 PubChem-20885894 ZINC000005135296 ZINC05135296
 27 28 0 0 0
SMALL
GASTEIGER

@<TRIPOS>ATOM
      1 C           7.9536   41.4155    7.8799 C.ar    1  UNL1        0.1868
      2 C           9.8472   41.7570    6.4554 C.ar    1  UNL1        0.1904
      3 N           7.6763   41.2253    6.5693 N.ar    1  UNL1       -0.1242
      4 N           8.7299   41.4135    5.7768 N.ar    1  UNL1       -0.1240
      5 S           9.5711   41.8469    8.1121 S.2     1  UNL1       -0.0154
      6 C          12.2918   42.4387    6.5389 C.2     1  UNL1        0.3096
      7 N          11.1143   42.0169    5.8437 N.am    1  UNL1       -0.2468
      8 N          13.4932   42.6605    5.7896 N.am    1  UNL1       -0.2680
      9 O          12.2695   42.6111    7.7877 O.2     1  UNL1       -0.2521
     10 H          11.1812   41.8962    4.8689 H       1  UNL1        0.1584
     11 H          13.4410   42.5071    4.8185 H       1  UNL1        0.1564
     12 C          14.7636   43.0823    6.3051 C.ar    1  UNL1        0.0517
     13 C          15.3490   42.3434    7.3394 C.ar    1  UNL1        0.0170
     14 C          16.5864   42.7230    7.8682 C.ar    1  UNL1        0.0309
     15 C          17.2467   43.8468    7.3641 C.ar    1  UNL1        0.1402
     16 C          16.6698   44.5906    6.3314 C.ar    1  UNL1        0.0309
     17 C          15.4326   44.2099    5.8038 C.ar    1  UNL1        0.0170
     18 F          18.4454   44.2147    7.8761 F       1  UNL1       -0.2042
     19 N           6.9762   41.2835    8.9245 N.pl3   1  UNL1       -0.2868
     20 C           7.3407   41.6544   10.2879 C.3     1  UNL1        0.0926
     21 C           8.8729   43.5733   10.7272 C.3     1  UNL1        0.0018
     22 C           8.7910   42.1024   10.3679 C.3     1  UNL1        0.0198
     23 C           9.5074   41.2912   11.4263 C.3     1  UNL1        0.0018
     24 C           5.5541   41.2015    8.5893 C.3     1  UNL1        0.0926
     25 C           4.6754   42.0960    9.4704 C.3     1  UNL1        0.0198
     26 C           4.6124   43.5309    8.9825 C.3     1  UNL1        0.0018
     27 C           3.2790   41.5315    9.6367 C.3     1  UNL1        0.0018
@<TRIPOS>BOND
     1    21    22    1
     2    22    23    1
     3    22    20    1
     4    20    19    1
     5    24    19    1
     6    24    25    1
     7    25    26    1
     8    25    27    1
     9     1     5   ar
    10     2     7    1
    11     2     5   ar
    12     6     8   am
    13    13    14   ar
    14    15    18    1
    15    15    16   ar
    16    17    12   ar
    17    19     1    1
    18     3     4   ar
    19     7     6   am
    20     8    12    1
    21     1     3   ar
    22     2     4   ar
    23     6     9    2
    24    12    13   ar
    25    14    15   ar
    26    16    17   ar
    27     7    10    1
    28     8    11    1
@<TRIPOS>MOLECULE
MolPort-007-671-450 ChemDiv-C795-0043 MCULE-6412679810 PubChem-20885894 ZINC000005135296 ZINC05135296
 27 28 0 0 0
SMALL
GASTEIGER

@<TRIPOS>ATOM
      1 C           5.5774   41.8877    9.8177 C.ar    1  UNL1        0.1868
      2 C           3.2663   42.1881   10.3656 C.ar    1  UNL1        0.1904
      3 N           4.8731   42.5035    8.8402 N.ar    1  UNL1       -0.1242
      4 N           3.5879   42.6723    9.1455 N.ar    1  UNL1       -0.1240
      5 S           4.5959   41.5093   11.1406 S.2     1  UNL1       -0.0154
      6 C           1.6654   42.2567   12.3355 C.2     1  UNL1        0.3096
      7 N           1.9543   42.2409   10.9340 N.am    1  UNL1       -0.2468
      8 N           0.2969   42.3117   12.7572 N.am    1  UNL1       -0.2680
      9 O           2.6001   42.2228   13.1810 O.2     1  UNL1       -0.2521
     10 H           1.1911   42.2685   10.3127 H       1  UNL1        0.1584
     11 H          -0.3826   42.3363   12.0452 H       1  UNL1        0.1564
     12 C          -0.1875   42.3347   14.1072 C.ar    1  UNL1        0.0517
     13 C          -1.1406   41.3868   14.4964 C.ar    1  UNL1        0.0170
     14 C          -1.6368   41.3771   15.8035 C.ar    1  UNL1        0.0309
     15 C          -1.1812   42.3180   16.7309 C.ar    1  UNL1        0.1402
     16 C          -0.2296   43.2682   16.3513 C.ar    1  UNL1        0.0309
     17 C           0.2655   43.2767   15.0442 C.ar    1  UNL1        0.0170
     18 F          -1.6617   42.3087   17.9972 F       1  UNL1       -0.2042
     19 N           6.9777   41.5836    9.7149 N.pl3   1  UNL1       -0.2868
     20 C           7.4573   40.8317    8.5600 C.3     1  UNL1        0.0926
     21 C           9.2364   41.9319    7.2007 C.3     1  UNL1        0.0018
     22 C           7.7419   41.7513    7.3835 C.3     1  UNL1        0.0198
     23 C           7.1560   41.1487    6.1246 C.3     1  UNL1        0.0018
     24 C           7.9520   42.3535   10.4890 C.3     1  UNL1        0.0926
     25 C           9.0851   41.4924   11.0574 C.3     1  UNL1        0.0198
     26 C          10.4612   42.0737   10.7940 C.3     1  UNL1        0.0018
     27 C           8.9009   41.2171   12.5361 C.3     1  UNL1        0.0018
@<TRIPOS>BOND
     1    21    22    1
     2    22    23    1
     3    22    20    1
     4    20    19    1
     5    24    19    1
     6    24    25    1
     7    25    26    1
     8    25    27    1
     9     1     5   ar
    10     2     7    1
    11     2     5   ar
    12     6     8   am
    13    13    14   ar
    14    15    18    1
    15    15    16   ar
    16    17    12   ar
    17    19     1    1
    18     3     4   ar
    19     7     6   am
    20     8    12    1
    21     1     3   ar
    22     2     4   ar
    23     6     9    2
    24    12    13   ar
    25    14    15   ar
    26    16    17   ar
    27     7    10    1
    28     8    11    1
@<TRIPOS>MOLECULE
MolPort-007-671-450 ChemDiv-C795-0043 MCULE-6412679810 PubChem-20885894 ZINC000005135296 ZINC05135296
 27 28 0 0 0
SMALL
GASTEIGER

@<TRIPOS>ATOM
      1 C           7.1258   41.7556    7.4576 C.ar    1  UNL1        0.1868
      2 C           9.2330   41.7859    6.3219 C.ar    1  UNL1        0.1904
      3 N           7.1172   41.0573    6.2987 N.ar    1  UNL1       -0.1242
      4 N           8.2898   41.0725    5.6677 N.ar    1  UNL1       -0.1240
      5 S           8.6393   42.4489    7.7491 S.2     1  UNL1       -0.0154
      6 C          11.7219   42.1149    6.7029 C.2     1  UNL1        0.3096
      7 N          10.5757   41.9621    5.8598 N.am    1  UNL1       -0.2468
      8 N          13.0085   42.2829    6.0942 N.am    1  UNL1       -0.2680
      9 O          11.5988   42.1016    7.9576 O.2     1  UNL1       -0.2521
     10 H          10.7224   41.9794    4.8865 H       1  UNL1        0.1584
     11 H          13.0332   42.2837    5.1100 H       1  UNL1        0.1564
     12 C          14.2640   42.4501    6.7676 C.ar    1  UNL1        0.0517
     13 C          15.0770   43.5335    6.4161 C.ar    1  UNL1        0.0170
     14 C          16.3077   43.7301    7.0499 C.ar    1  UNL1        0.0309
     15 C          16.7330   42.8416    8.0412 C.ar    1  UNL1        0.1402
     16 C          15.9278   41.7570    8.3987 C.ar    1  UNL1        0.0309
     17 C          14.6977   41.5618    7.7642 C.ar    1  UNL1        0.0170
     18 F          17.9251   43.0318    8.6553 F       1  UNL1       -0.2042
     19 N           5.9760   41.8957    8.3076 N.pl3   1  UNL1       -0.2868
     20 C           5.2519   40.6993    8.7241 C.3     1  UNL1        0.0926
     21 C           5.2447   41.7901   10.9676 C.3     1  UNL1        0.0018
     22 C           4.4445   40.9555    9.9863 C.3     1  UNL1        0.0198
     23 C           3.1735   41.6943    9.6257 C.3     1  UNL1        0.0018
     24 C           5.7848   43.1219    9.0829 C.3     1  UNL1        0.0926
     25 C           5.3949   44.3260    8.2188 C.3     1  UNL1        0.0198
     26 C           5.9570   44.2531    6.8117 C.3     1  UNL1        0.0018
     27 C           3.8944   44.5334    8.1794 C.3     1  UNL1        0.0018
@<TRIPOS>BOND
     1    21    22    1
     2    22    23    1
     3    22    20    1
     4    20    19    1
     5    24    19    1
     6    24    25    1
     7    25    26    1
     8    25    27    1
     9     1     5   ar
    10     2     7    1
    11     2     5   ar
    12     6     8   am
    13    13    14   ar
    14    15    18    1
    15    15    16   ar
    16    17    12   ar
    17    19     1    1
    18     3     4   ar
    19     7     6   am
    20     8    12    1
    21     1     3   ar
    22     2     4   ar
    23     6     9    2
    24    12    13   ar
    25    14    15   ar
    26    16    17   ar
    27     7    10    1
    28     8    11    1
@<TRIPOS>MOLECULE
MolPort-007-671-450 ChemDiv-C795-0043 MCULE-6412679810 PubChem-20885894 ZINC000005135296 ZINC05135296
 27 28 0 0 0
SMALL
GASTEIGER

@<TRIPOS>ATOM
      1 C           7.2320   42.0559    7.9951 C.ar    1  UNL1        0.1868
      2 C           9.2578   41.9609    6.7228 C.ar    1  UNL1        0.1904
      3 N           7.0229   42.0581    6.6583 N.ar    1  UNL1       -0.1242
      4 N           8.1495   42.0034    5.9503 N.ar    1  UNL1       -0.1240
      5 S           8.8806   41.9917    8.3617 S.2     1  UNL1       -0.0154
      6 C          11.7763   42.1637    6.9749 C.2     1  UNL1        0.3096
      7 N          10.5936   41.8997    6.2138 N.am    1  UNL1       -0.2468
      8 N          13.0506   42.0623    6.3270 N.am    1  UNL1       -0.2680
      9 O          11.6953   42.4794    8.1929 O.2     1  UNL1       -0.2521
     10 H          10.7079   41.6572    5.2665 H       1  UNL1        0.1584
     11 H          13.0418   41.8114    5.3751 H       1  UNL1        0.1564
     12 C          14.3376   42.2878    6.9191 C.ar    1  UNL1        0.0517
     13 C          14.7026   41.5366    8.0419 C.ar    1  UNL1        0.0170
     14 C          15.9485   41.7276    8.6471 C.ar    1  UNL1        0.0309
     15 C          16.8384   42.6735    8.1311 C.ar    1  UNL1        0.1402
     16 C          16.4824   43.4282    7.0102 C.ar    1  UNL1        0.0309
     17 C          15.2365   43.2362    6.4063 C.ar    1  UNL1        0.0170
     18 F          18.0453   42.8587    8.7171 F       1  UNL1       -0.2042
     19 N           6.1729   42.1224    8.9635 N.pl3   1  UNL1       -0.2868
     20 C           5.8898   43.3951    9.6187 C.3     1  UNL1        0.0926
     21 C           7.3011   44.9356    8.2555 C.3     1  UNL1        0.0018
     22 C           5.8830   44.5400    8.6189 C.3     1  UNL1        0.0198
     23 C           5.1513   44.1062    7.3668 C.3     1  UNL1        0.0018
     24 C           5.1355   41.0906    8.9847 C.3     1  UNL1        0.0926
     25 C           4.1021   41.2986   10.0970 C.3     1  UNL1        0.0198
     26 C           2.7463   41.7328    9.5733 C.3     1  UNL1        0.0018
     27 C           3.9620   40.0731   10.9771 C.3     1  UNL1        0.0018
@<TRIPOS>BOND
     1    21    22    1
     2    22    23    1
     3    22    20    1
     4    20    19    1
     5    24    19    1
     6    24    25    1
     7    25    26    1
     8    25    27    1
     9     1     5   ar
    10     2     7    1
    11     2     5   ar
    12     6     8   am
    13    13    14   ar
    14    15    18    1
    15    15    16   ar
    16    17    12   ar
    17    19     1    1
    18     3     4   ar
    19     7     6   am
    20     8    12    1
    21     1     3   ar
    22     2     4   ar
    23     6     9    2
    24    12    13   ar
    25    14    15   ar
    26    16    17   ar
    27     7    10    1
    28     8    11    1
@<TRIPOS>MOLECULE
MolPort-007-671-450 ChemDiv-C795-0043 MCULE-6412679810 PubChem-20885894 ZINC000005135296 ZINC05135296
 27 28 0 0 0
SMALL
GASTEIGER

@<TRIPOS>ATOM
      1 C           5.4192   41.4556    9.2913 C.ar    1  UNL1        0.1868
      2 C           3.4799   42.0225   10.5756 C.ar    1  UNL1        0.1904
      3 N           4.9298   40.4158   10.0056 N.ar    1  UNL1       -0.1242
      4 N           3.8500   40.7305   10.7187 N.ar    1  UNL1       -0.1240
      5 S           4.5031   42.8553    9.5321 S.2     1  UNL1       -0.0154
      6 C           1.8292   42.2033   12.4966 C.2     1  UNL1        0.3096
      7 N           2.3561   42.6169   11.2320 N.am    1  UNL1       -0.2468
      8 N           0.6946   42.8966   13.0313 N.am    1  UNL1       -0.2680
      9 O           2.3558   41.2463   13.1262 O.2     1  UNL1       -0.2521
     10 H           1.9107   43.3687   10.7785 H       1  UNL1        0.1584
     11 H           0.3332   43.6340   12.4883 H       1  UNL1        0.1564
     12 C           0.0299   42.6294   14.2741 C.ar    1  UNL1        0.0517
     13 C          -1.0593   41.7509   14.2793 C.ar    1  UNL1        0.0170
     14 C          -1.7329   41.4653   15.4708 C.ar    1  UNL1        0.0309
     15 C          -1.3196   42.0587   16.6667 C.ar    1  UNL1        0.1402
     16 C          -0.2330   42.9372   16.6710 C.ar    1  UNL1        0.0309
     17 C           0.4394   43.2217   15.4791 C.ar    1  UNL1        0.0170
     18 F          -1.9719   41.7822   17.8210 F       1  UNL1       -0.2042
     19 N           6.5848   41.3653    8.4564 N.pl3   1  UNL1       -0.2868
     20 C           7.8623   40.9991    9.0590 C.3     1  UNL1        0.0926
     21 C           7.9340   43.4440    9.5496 C.3     1  UNL1        0.0018
     22 C           8.3372   42.0646   10.0336 C.3     1  UNL1        0.0198
     23 C           7.7169   41.8129   11.3912 C.3     1  UNL1        0.0018
     24 C           6.4373   41.2139    7.0084 C.3     1  UNL1        0.0926
     25 C           7.1389   42.3200    6.2128 C.3     1  UNL1        0.0198
     26 C           6.7174   43.7141    6.6367 C.3     1  UNL1        0.0018
     27 C           8.6473   42.1847    6.2631 C.3     1  UNL1        0.0018
@<TRIPOS>BOND
     1    21    22    1
     2    22    23    1
     3    22    20    1
     4    20    19    1
     5    24    19    1
     6    24    25    1
     7    25    26    1
     8    25    27    1
     9     1     5   ar
    10     2     7    1
    11     2     5   ar
    12     6     8   am
    13    13    14   ar
    14    15    18    1
    15    15    16   ar
    16    17    12   ar
    17    19     1    1
    18     3     4   ar
    19     7     6   am
    20     8    12    1
    21     1     3   ar
    22     2     4   ar
    23     6     9    2
    24    12    13   ar
    25    14    15   ar
    26    16    17   ar
    27     7    10    1
    28     8    11    1
@<TRIPOS>MOLECULE
MolPort-007-671-450 ChemDiv-C795-0043 MCULE-6412679810 PubChem-20885894 ZINC000005135296 ZINC05135296
 27 28 0 0 0
SMALL
GASTEIGER

@<TRIPOS>ATOM
      1 C           5.9952   41.9116    9.2524 C.ar    1  UNL1        0.1868
      2 C           3.7706   42.0041   10.1323 C.ar    1  UNL1        0.1904
      3 N           5.3863   40.7039    9.2913 N.ar    1  UNL1       -0.1242
      4 N           4.1482   40.7554    9.7790 N.ar    1  UNL1       -0.1240
      5 S           4.9878   43.1301    9.8498 S.2     1  UNL1       -0.0154
      6 C           2.1143   42.1520   12.0513 C.2     1  UNL1        0.3096
      7 N           2.4921   42.3345   10.6831 N.am    1  UNL1       -0.2468
      8 N           0.7937   42.5313   12.4588 N.am    1  UNL1       -0.2680
      9 O           2.9307   41.6664   12.8804 O.2     1  UNL1       -0.2521
     10 H           1.8201   42.7170   10.0737 H       1  UNL1        0.1584
     11 H           0.2077   42.9040   11.7611 H       1  UNL1        0.1564
     12 C           0.2357   42.4250   13.7760 C.ar    1  UNL1        0.0517
     13 C          -0.8462   41.5614   13.9807 C.ar    1  UNL1        0.0170
     14 C          -1.4174   41.4306   15.2502 C.ar    1  UNL1        0.0309
     15 C          -0.9082   42.1650   16.3246 C.ar    1  UNL1        0.1402
     16 C           0.1719   43.0298   16.1296 C.ar    1  UNL1        0.0309
     17 C           0.7418   43.1595   14.8599 C.ar    1  UNL1        0.0170
     18 F          -1.4613   42.0384   17.5545 F       1  UNL1       -0.2042
     19 N           7.3374   42.1081    8.7794 N.pl3   1  UNL1       -0.2868
     20 C           7.6925   43.3814    8.1617 C.3     1  UNL1        0.0926
     21 C           6.6315   42.1934    6.2418 C.3     1  UNL1        0.0018
     22 C           7.0167   43.5456    6.8101 C.3     1  UNL1        0.0198
     23 C           5.7708   44.3898    6.9730 C.3     1  UNL1        0.0018
     24 C           8.4196   41.2573    9.2758 C.3     1  UNL1        0.0926
     25 C           9.1257   40.4720    8.1653 C.3     1  UNL1        0.0198
     26 C           8.1621   39.7307    7.2582 C.3     1  UNL1        0.0018
     27 C          10.0507   41.3519    7.3489 C.3     1  UNL1        0.0018
@<TRIPOS>BOND
     1    21    22    1
     2    22    23    1
     3    22    20    1
     4    20    19    1
     5    24    19    1
     6    24    25    1
     7    25    26    1
     8    25    27    1
     9     1     5   ar
    10     2     7    1
    11     2     5   ar
    12     6     8   am
    13    13    14   ar
    14    15    18    1
    15    15    16   ar
    16    17    12   ar
    17    19     1    1
    18     3     4   ar
    19     7     6   am
    20     8    12    1
    21     1     3   ar
    22     2     4   ar
    23     6     9    2
    24    12    13   ar
    25    14    15   ar
    26    16    17   ar
    27     7    10    1
    28     8    11    1
@<TRIPOS>MOLECULE
MolPort-007-671-450 ChemDiv-C795-0043 MCULE-6412679810 PubChem-20885894 ZINC000005135296 ZINC05135296
 27 28 0 0 0
SMALL
GASTEIGER

@<TRIPOS>ATOM
      1 C           1.6823   42.3358   12.6983 C.ar    1  UNL1        0.1868
      2 C           3.0651   41.2957   11.0438 C.ar    1  UNL1        0.1904
      3 N           2.6330   41.5311   13.2270 N.ar    1  UNL1       -0.1242
      4 N           3.4035   40.9538   12.3069 N.ar    1  UNL1       -0.1240
      5 S           1.7598   42.3559   11.0102 S.2     1  UNL1       -0.0154
      6 C           4.9842   41.3016    9.3810 C.2     1  UNL1        0.3096
      7 N           3.7314   40.8150    9.8724 N.am    1  UNL1       -0.2468
      8 N           5.5310   40.7204    8.1906 N.am    1  UNL1       -0.2680
      9 O           5.5931   42.2247    9.9865 O.2     1  UNL1       -0.2521
     10 H           3.2939   40.0935    9.3651 H       1  UNL1        0.1584
     11 H           5.0041   40.0039    7.7683 H       1  UNL1        0.1564
     12 C           6.7650   41.0723    7.5494 C.ar    1  UNL1        0.0517
     13 C           6.7993   42.2094    6.7344 C.ar    1  UNL1        0.0170
     14 C           7.9834   42.5849    6.0925 C.ar    1  UNL1        0.0309
     15 C           9.1425   41.8230    6.2627 C.ar    1  UNL1        0.1402
     16 C           9.1175   40.6860    7.0747 C.ar    1  UNL1        0.0309
     17 C           7.9331   40.3119    7.7157 C.ar    1  UNL1        0.0170
     18 F          10.2896   42.1865    5.6410 F       1  UNL1       -0.2042
     19 N           0.7237   43.0564   13.4894 N.pl3   1  UNL1       -0.2868
     20 C           1.1943   44.0860   14.4100 C.3     1  UNL1        0.0926
     21 C          -0.2359   44.9333   16.2701 C.3     1  UNL1        0.0018
     22 C           0.0732   45.0400   14.7893 C.3     1  UNL1        0.0198
     23 C           0.4941   46.4585   14.4700 C.3     1  UNL1        0.0018
     24 C          -0.6840   43.0800   13.0902 C.3     1  UNL1        0.0926
     25 C          -1.5436   42.0673   13.8543 C.3     1  UNL1        0.0198
     26 C          -2.3656   41.1781   12.9407 C.3     1  UNL1        0.0018
     27 C          -0.7176   41.2275   14.8075 C.3     1  UNL1        0.0018
@<TRIPOS>BOND
     1    21    22    1
     2    22    23    1
     3    22    20    1
     4    20    19    1
     5    24    19    1
     6    24    25    1
     7    25    26    1
     8    25    27    1
     9     1     5   ar
    10     2     7    1
    11     2     5   ar
    12     6     8   am
    13    13    14   ar
    14    15    18    1
    15    15    16   ar
    16    17    12   ar
    17    19     1    1
    18     3     4   ar
    19     7     6   am
    20     8    12    1
    21     1     3   ar
    22     2     4   ar
    23     6     9    2
    24    12    13   ar
    25    14    15   ar
    26    16    17   ar
    27     7    10    1
    28     8    11    1
@<TRIPOS>MOLECULE
MolPort-007-671-450 ChemDiv-C795-0043 MCULE-6412679810 PubChem-20885894 ZINC000005135296 ZINC05135296
 27 28 0 0 0
SMALL
GASTEIGER

@<TRIPOS>ATOM
      1 C           7.6635   41.4042    8.5313 C.ar    1  UNL1        0.1868
      2 C           9.6070   41.5551    7.1416 C.ar    1  UNL1        0.1904
      3 N           8.0962   40.2016    8.0871 N.ar    1  UNL1       -0.1242
      4 N           9.1784   40.2851    7.3155 N.ar    1  UNL1       -0.1240
      5 S           8.6368   42.6609    7.9570 S.2     1  UNL1       -0.0154
      6 C          11.9997   42.3662    6.8860 C.2     1  UNL1        0.3096
      7 N          10.7464   41.9213    6.3575 N.am    1  UNL1       -0.2468
      8 N          13.0539   42.6990    5.9740 N.am    1  UNL1       -0.2680
      9 O          12.1700   42.4624    8.1315 O.2     1  UNL1       -0.2521
     10 H          10.6616   41.8628    5.3784 H       1  UNL1        0.1584
     11 H          12.8538   42.6010    5.0151 H       1  UNL1        0.1564
     12 C          14.3699   43.1598    6.3109 C.ar    1  UNL1        0.0517
     13 C          15.1295   42.4183    7.2229 C.ar    1  UNL1        0.0170
     14 C          16.4164   42.8351    7.5763 C.ar    1  UNL1        0.0309
     15 C          16.9520   43.9990    7.0181 C.ar    1  UNL1        0.1402
     16 C          16.2008   44.7457    6.1067 C.ar    1  UNL1        0.0309
     17 C          14.9144   44.3277    5.7543 C.ar    1  UNL1        0.0170
     18 F          18.1986   44.4030    7.3603 F       1  UNL1       -0.2042
     19 N           6.5072   41.5715    9.3673 N.pl3   1  UNL1       -0.2868
     20 C           5.1908   41.2407    8.8317 C.3     1  UNL1        0.0926
     21 C           3.9550   43.3956    9.0604 C.3     1  UNL1        0.0018
     22 C           4.0909   41.9771    9.5791 C.3     1  UNL1        0.0198
     23 C           2.7788   41.2481    9.3836 C.3     1  UNL1        0.0018
     24 C           6.6604   41.6488   10.8205 C.3     1  UNL1        0.0926
     25 C           8.1226   41.7542   11.2671 C.3     1  UNL1        0.0198
     26 C           8.6041   43.1876   11.3874 C.3     1  UNL1        0.0018
     27 C           8.3773   41.0001   12.5565 C.3     1  UNL1        0.0018
@<TRIPOS>BOND
     1    21    22    1
     2    22    23    1
     3    22    20    1
     4    20    19    1
     5    24    19    1
     6    24    25    1
     7    25    26    1
     8    25    27    1
     9     1     5   ar
    10     2     7    1
    11     2     5   ar
    12     6     8   am
    13    13    14   ar
    14    15    18    1
    15    15    16   ar
    16    17    12   ar
    17    19     1    1
    18     3     4   ar
    19     7     6   am
    20     8    12    1
    21     1     3   ar
    22     2     4   ar
    23     6     9    2
    24    12    13   ar
    25    14    15   ar
    26    16    17   ar
    27     7    10    1
    28     8    11    1
@<TRIPOS>MOLECULE
MolPort-007-671-450 ChemDiv-C795-0043 MCULE-6412679810 PubChem-20885894 ZINC000005135296 ZINC05135296
 27 28 0 0 0
SMALL
GASTEIGER

@<TRIPOS>ATOM
      1 C           6.5141   41.3092    9.7586 C.ar    1  UNL1        0.1868
      2 C           4.5000   41.0391   11.0243 C.ar    1  UNL1        0.1904
      3 N           5.4351   41.0312    8.9911 N.ar    1  UNL1       -0.1242
      4 N           4.3142   40.8827    9.6947 N.ar    1  UNL1       -0.1240
      5 S           6.1052   41.3758   11.3971 S.2     1  UNL1       -0.0154
      6 C           2.4952   41.9451   12.2922 C.2     1  UNL1        0.3096
      7 N           3.4611   40.9299   12.0020 N.am    1  UNL1       -0.2468
      8 N           1.5101   41.6917   13.3018 N.am    1  UNL1       -0.2680
      9 O           2.5132   43.0412   11.6694 O.2     1  UNL1       -0.2521
     10 H           3.4065   40.0913   12.5149 H       1  UNL1        0.1584
     11 H           1.5529   40.8155   13.7487 H       1  UNL1        0.1564
     12 C           0.4681   42.5798   13.7298 C.ar    1  UNL1        0.0517
     13 C           0.8213   43.8294   14.2516 C.ar    1  UNL1        0.0170
     14 C          -0.1656   44.7227   14.6793 C.ar    1  UNL1        0.0309
     15 C          -1.5147   44.3699   14.5874 C.ar    1  UNL1        0.1402
     16 C          -1.8768   43.1244   14.0677 C.ar    1  UNL1        0.0309
     17 C          -0.8890   42.2324   13.6405 C.ar    1  UNL1        0.0170
     18 F          -2.4710   45.2350   15.0016 F       1  UNL1       -0.2042
     19 N           7.8362   41.4987    9.2293 N.pl3   1  UNL1       -0.2868
     20 C           8.9358   41.7725   10.1486 C.3     1  UNL1        0.0926
     21 C          11.0766   42.9084    9.5571 C.3     1  UNL1        0.0018
     22 C          10.2816   41.6209    9.4583 C.3     1  UNL1        0.0198
     23 C          11.0599   40.5037   10.1198 C.3     1  UNL1        0.0018
     24 C           8.1636   41.0128    7.8884 C.3     1  UNL1        0.0926
     25 C           8.4428   42.1418    6.8904 C.3     1  UNL1        0.0198
     26 C           9.4639   41.7616    5.8351 C.3     1  UNL1        0.0018
     27 C           7.1723   42.6496    6.2391 C.3     1  UNL1        0.0018
@<TRIPOS>BOND
     1    21    22    1
     2    22    23    1
     3    22    20    1
     4    20    19    1
     5    24    19    1
     6    24    25    1
     7    25    26    1
     8    25    27    1
     9     1     5   ar
    10     2     7    1
    11     2     5   ar
    12     6     8   am
    13    13    14   ar
    14    15    18    1
    15    15    16   ar
    16    17    12   ar
    17    19     1    1
    18     3     4   ar
    19     7     6   am
    20     8    12    1
    21     1     3   ar
    22     2     4   ar
    23     6     9    2
    24    12    13   ar
    25    14    15   ar
    26    16    17   ar
    27     7    10    1
    28     8    11    1
