@<TRIPOS>MOLECULE
Molport-047-872-220
 21 21 0 0 0
SMALL
GASTEIGER

@<TRIPOS>ATOM
      1 C          13.8037   43.0345    6.2025 C.ar    1  UNL1        0.1641
      2 C          14.0283   42.0818    7.1799 C.ar    1  UNL1        0.1630
      3 C          11.9718   42.0348    6.6516 C.ar    1  UNL1        0.2039
      4 CL         15.5521   41.7054    7.9648 Cl      1  UNL1       -0.0595
      5 N          12.8748   41.4473    7.4675 N.ar    1  UNL1       -0.2017
      6 N          12.5017   42.9985    5.8739 N.ar    1  UNL1       -0.3194
      7 H          12.0360   43.5555    5.2091 H       1  UNL1        0.1689
      8 C           9.9644   40.9898    5.5117 C.2     1  UNL1        0.4073
      9 O          10.6421   40.6553    4.5027 O.2     1  UNL1       -0.2260
     10 N          10.5829   41.6782    6.6062 N.am    1  UNL1       -0.2211
     11 H          10.0189   41.9218    7.3755 H       1  UNL1        0.1610
     12 O           8.5941   40.6974    5.5874 O.3     1  UNL1       -0.4417
     13 C           7.9555   39.8578    6.5615 C.3     1  UNL1        0.1378
     14 C           7.8836   40.6564    7.8720 C.3     1  UNL1        0.0437
     15 C           8.7825   38.5802    6.8028 C.3     1  UNL1        0.0437
     16 C           6.5238   39.5022    6.1170 C.3     1  UNL1        0.0437
     17 C          14.7798   43.9514    5.5921 C.2     1  UNL1        0.3595
     18 O          14.9299   43.9794    4.3405 O.2     1  UNL1       -0.2432
     19 O          15.5431   44.7854    6.4174 O.3     1  UNL1       -0.4444
     20 C          17.6616   43.8199    5.7307 C.3     1  UNL1        0.0513
     21 C          16.8612   44.4637    6.8568 C.3     1  UNL1        0.2089
@<TRIPOS>BOND
     1    20    21    1
     2    21    19    1
     3    17    19    1
     4    17     1    1
     5     2     4    1
     6     2     5   ar
     7     3    10    1
     8     3     6   ar
     9     8    12    1
    10    13    12    1
    11    13    14    1
    12    13    15    1
    13    13    16    1
    14    10     8   am
    15     6     1   ar
    16    17    18    2
    17     1     2   ar
    18     3     5   ar
    19     8     9    2
    20    10    11    1
    21     6     7    1
@<TRIPOS>MOLECULE
Molport-047-872-220
 21 21 0 0 0
SMALL
GASTEIGER

@<TRIPOS>ATOM
      1 C          14.6917   42.7682    7.0114 C.ar    1  UNL1        0.1641
      2 C          14.2740   43.8250    6.2226 C.ar    1  UNL1        0.1630
      3 C          12.7713   42.3245    6.1917 C.ar    1  UNL1        0.2039
      4 CL         15.1374   45.3197    5.9067 Cl      1  UNL1       -0.0595
      5 N          13.0618   43.5502    5.7023 N.ar    1  UNL1       -0.2017
      6 N          13.7366   41.8241    6.9868 N.ar    1  UNL1       -0.3194
      7 H          13.7411   40.9551    7.4495 H       1  UNL1        0.1689
      8 C          11.2896   40.2738    6.3344 C.2     1  UNL1        0.4073
      9 O          12.1407   39.6382    7.0133 O.2     1  UNL1       -0.2260
     10 N          11.5590   41.6137    5.9028 N.am    1  UNL1       -0.2211
     11 H          10.8685   42.0756    5.3745 H       1  UNL1        0.1610
     12 O          10.0631   39.6875    5.9865 O.3     1  UNL1       -0.4417
     13 C           8.9704   39.4089    6.8751 C.3     1  UNL1        0.1378
     14 C           8.9988   40.4774    7.9786 C.3     1  UNL1        0.0437
     15 C           9.1376   38.0208    7.5229 C.3     1  UNL1        0.0437
     16 C           7.6260   39.5013    6.1283 C.3     1  UNL1        0.0437
     17 C          15.9482   42.6460    7.7680 C.2     1  UNL1        0.3595
     18 O          16.3065   41.5287    8.2299 O.2     1  UNL1       -0.2432
     19 O          16.7355   43.7847    7.9742 O.3     1  UNL1       -0.4444
     20 C          17.9969   43.6402    5.9054 C.3     1  UNL1        0.0513
     21 C          18.0263   43.9636    7.3946 C.3     1  UNL1        0.2089
@<TRIPOS>BOND
     1    20    21    1
     2    21    19    1
     3    17    19    1
     4    17     1    1
     5     2     4    1
     6     2     5   ar
     7     3    10    1
     8     3     6   ar
     9     8    12    1
    10    13    12    1
    11    13    14    1
    12    13    15    1
    13    13    16    1
    14    10     8   am
    15     6     1   ar
    16    17    18    2
    17     1     2   ar
    18     3     5   ar
    19     8     9    2
    20    10    11    1
    21     6     7    1
@<TRIPOS>MOLECULE
Molport-047-872-220
 21 21 0 0 0
SMALL
GASTEIGER

@<TRIPOS>ATOM
      1 C          13.9689   39.5828   10.7652 C.ar    1  UNL1        0.1641
      2 C          13.9908   40.4261    9.6689 C.ar    1  UNL1        0.1630
      3 C          11.9770   40.1961   10.3034 C.ar    1  UNL1        0.2039
      4 CL         15.3978   40.9480    8.7593 Cl      1  UNL1       -0.0595
      5 N          12.7355   40.8165    9.3728 N.ar    1  UNL1       -0.2017
      6 N          12.6928   39.4426   11.1603 N.ar    1  UNL1       -0.3194
      7 H          12.3541   38.9057   11.9128 H       1  UNL1        0.1689
      8 C           9.8579   41.5596   10.5701 C.2     1  UNL1        0.4073
      9 O          10.5001   42.6394   10.6745 O.2     1  UNL1       -0.2260
     10 N          10.5499   40.3183   10.3842 N.am    1  UNL1       -0.2211
     11 H          10.0117   39.4975   10.3070 H       1  UNL1        0.1610
     12 O           8.4561   41.5469   10.6329 O.3     1  UNL1       -0.4417
     13 C           7.5531   41.8092    9.5479 C.3     1  UNL1        0.1378
     14 C           6.1416   41.4468   10.0342 C.3     1  UNL1        0.0437
     15 C           7.8994   40.9322    8.3292 C.3     1  UNL1        0.0437
     16 C           7.5798   43.3021    9.1679 C.3     1  UNL1        0.0437
     17 C          15.1098   38.9282   11.4254 C.2     1  UNL1        0.3595
     18 O          14.9152   38.0529   12.3119 O.2     1  UNL1       -0.2432
     19 O          16.4113   39.2937   11.0625 O.3     1  UNL1       -0.4444
     20 C          18.6498   39.0622   10.1528 C.3     1  UNL1        0.0513
     21 C          17.4254   38.3518   10.7181 C.3     1  UNL1        0.2089
@<TRIPOS>BOND
     1    20    21    1
     2    21    19    1
     3    17    19    1
     4    17     1    1
     5     2     4    1
     6     2     5   ar
     7     3    10    1
     8     3     6   ar
     9     8    12    1
    10    13    12    1
    11    13    14    1
    12    13    15    1
    13    13    16    1
    14    10     8   am
    15     6     1   ar
    16    17    18    2
    17     1     2   ar
    18     3     5   ar
    19     8     9    2
    20    10    11    1
    21     6     7    1
@<TRIPOS>MOLECULE
Molport-047-872-220
 21 21 0 0 0
SMALL
GASTEIGER

@<TRIPOS>ATOM
      1 C           5.2067   42.1761   10.0392 C.ar    1  UNL1        0.1641
      2 C           4.8863   41.6178   11.2637 C.ar    1  UNL1        0.1630
      3 C           6.9806   41.4313   10.9640 C.ar    1  UNL1        0.2039
      4 CL          3.2957   41.5089   11.9969 Cl      1  UNL1       -0.0595
      5 N           6.0029   41.1458   11.8521 N.ar    1  UNL1       -0.2017
      6 N           6.5319   42.0544    9.8573 N.ar    1  UNL1       -0.3194
      7 H           7.0605   42.3553    9.0832 H       1  UNL1        0.1689
      8 C           9.4539   41.8859   10.6516 C.2     1  UNL1        0.4073
      9 O           9.2334   42.9257    9.9737 O.2     1  UNL1       -0.2260
     10 N           8.3641   41.1096   11.1656 N.am    1  UNL1       -0.2211
     11 H           8.5786   40.3046   11.6902 H       1  UNL1        0.1610
     12 O          10.7657   41.4653   10.9183 O.3     1  UNL1       -0.4417
     13 C          11.6013   40.6827   10.0519 C.3     1  UNL1        0.1378
     14 C          12.6530   39.9945   10.9354 C.3     1  UNL1        0.0437
     15 C          12.3224   41.5853    9.0322 C.3     1  UNL1        0.0437
     16 C          10.7739   39.6016    9.3305 C.3     1  UNL1        0.0437
     17 C           4.2987   42.8071    9.0678 C.2     1  UNL1        0.3595
     18 O           3.0508   42.7667    9.2442 O.2     1  UNL1       -0.2432
     19 O           4.8364   43.4453    7.9441 O.3     1  UNL1       -0.4444
     20 C           3.4695   45.4002    7.4952 C.3     1  UNL1        0.0513
     21 C           4.8661   44.8621    7.7837 C.3     1  UNL1        0.2089
@<TRIPOS>BOND
     1    20    21    1
     2    21    19    1
     3    17    19    1
     4    17     1    1
     5     2     4    1
     6     2     5   ar
     7     3    10    1
     8     3     6   ar
     9     8    12    1
    10    13    12    1
    11    13    14    1
    12    13    15    1
    13    13    16    1
    14    10     8   am
    15     6     1   ar
    16    17    18    2
    17     1     2   ar
    18     3     5   ar
    19     8     9    2
    20    10    11    1
    21     6     7    1
@<TRIPOS>MOLECULE
Molport-047-872-220
 21 21 0 0 0
SMALL
GASTEIGER

@<TRIPOS>ATOM
      1 C          15.2978   41.7742    7.9573 C.ar    1  UNL1        0.1641
      2 C          14.2509   42.2123    7.1664 C.ar    1  UNL1        0.1630
      3 C          13.6071   40.5049    8.2531 C.ar    1  UNL1        0.2039
      4 CL         14.2486   43.5857    6.0740 Cl      1  UNL1       -0.0595
      5 N          13.1805   41.4144    7.3492 N.ar    1  UNL1       -0.2017
      6 N          14.8830   40.6950    8.6410 N.ar    1  UNL1       -0.3194
      7 H          15.3993   40.1593    9.2857 H       1  UNL1        0.1689
      8 C          13.2242   38.0734    8.8551 C.2     1  UNL1        0.4073
      9 O          14.3822   37.7417    8.4832 O.2     1  UNL1       -0.2260
     10 N          12.7937   39.4372    8.7597 N.am    1  UNL1       -0.2211
     11 H          11.8820   39.6551    9.0607 H       1  UNL1        0.1610
     12 O          12.3327   37.1197    9.3695 O.3     1  UNL1       -0.4417
     13 C          12.6329   36.1166   10.3519 C.3     1  UNL1        0.1378
     14 C          13.5542   36.7652   11.3963 C.3     1  UNL1        0.0437
     15 C          13.3722   34.9286    9.7064 C.3     1  UNL1        0.0437
     16 C          11.3460   35.6398   11.0520 C.3     1  UNL1        0.0437
     17 C          16.6474   42.3501    8.0713 C.2     1  UNL1        0.3595
     18 O          17.6353   41.6096    8.3279 O.2     1  UNL1       -0.2432
     19 O          16.8194   43.7284    7.8986 O.3     1  UNL1       -0.4444
     20 C          17.6386   43.8374    5.6164 C.3     1  UNL1        0.0513
     21 C          17.8219   44.2964    7.0582 C.3     1  UNL1        0.2089
@<TRIPOS>BOND
     1    20    21    1
     2    21    19    1
     3    17    19    1
     4    17     1    1
     5     2     4    1
     6     2     5   ar
     7     3    10    1
     8     3     6   ar
     9     8    12    1
    10    13    12    1
    11    13    14    1
    12    13    15    1
    13    13    16    1
    14    10     8   am
    15     6     1   ar
    16    17    18    2
    17     1     2   ar
    18     3     5   ar
    19     8     9    2
    20    10    11    1
    21     6     7    1
@<TRIPOS>MOLECULE
Molport-047-872-220
 21 21 0 0 0
SMALL
GASTEIGER

@<TRIPOS>ATOM
      1 C          13.7459   41.0642    8.2425 C.ar    1  UNL1        0.1641
      2 C          14.1646   42.0394    7.3553 C.ar    1  UNL1        0.1630
      3 C          12.0947   41.6836    7.0397 C.ar    1  UNL1        0.2039
      4 CL         15.7804   42.7049    7.1946 Cl      1  UNL1       -0.0595
      5 N          13.1259   42.4342    6.5931 N.ar    1  UNL1       -0.2017
      6 N          12.4367   40.8451    8.0369 N.ar    1  UNL1       -0.3194
      7 H          11.8537   40.2097    8.5118 H       1  UNL1        0.1689
      8 C           9.9365   40.6209    6.2437 C.2     1  UNL1        0.4073
      9 O          10.3643   39.4558    6.4646 O.2     1  UNL1       -0.2260
     10 N          10.7619   41.7609    6.5146 N.am    1  UNL1       -0.2211
     11 H          10.3907   42.6536    6.3284 H       1  UNL1        0.1610
     12 O           8.6475   40.8290    5.7298 O.3     1  UNL1       -0.4417
     13 C           7.4409   40.9802    6.4933 C.3     1  UNL1        0.1378
     14 C           6.7900   42.3016    6.0568 C.3     1  UNL1        0.0437
     15 C           7.7574   41.0558    7.9994 C.3     1  UNL1        0.0437
     16 C           6.4647   39.8248    6.2007 C.3     1  UNL1        0.0437
     17 C          14.5477   40.3586    9.2551 C.2     1  UNL1        0.3595
     18 O          15.6676   39.8661    8.9497 O.2     1  UNL1       -0.2432
     19 O          14.0493   40.2351   10.5572 O.3     1  UNL1       -0.4444
     20 C          14.6496   38.3476   11.9603 C.3     1  UNL1        0.0513
     21 C          13.5744   39.0065   11.1041 C.3     1  UNL1        0.2089
@<TRIPOS>BOND
     1    20    21    1
     2    21    19    1
     3    17    19    1
     4    17     1    1
     5     2     4    1
     6     2     5   ar
     7     3    10    1
     8     3     6   ar
     9     8    12    1
    10    13    12    1
    11    13    14    1
    12    13    15    1
    13    13    16    1
    14    10     8   am
    15     6     1   ar
    16    17    18    2
    17     1     2   ar
    18     3     5   ar
    19     8     9    2
    20    10    11    1
    21     6     7    1
@<TRIPOS>MOLECULE
Molport-047-872-220
 21 21 0 0 0
SMALL
GASTEIGER

@<TRIPOS>ATOM
      1 C          13.6916   40.6393    9.4833 C.ar    1  UNL1        0.1641
      2 C          13.0622   40.1082   10.5949 C.ar    1  UNL1        0.1630
      3 C          11.6652   41.3086    9.5374 C.ar    1  UNL1        0.2039
      4 CL         13.7618   39.0468   11.8046 Cl      1  UNL1       -0.0595
      5 N          11.7823   40.5276   10.6341 N.ar    1  UNL1       -0.2017
      6 N          12.8020   41.3965    8.8203 N.ar    1  UNL1       -0.3194
      7 H          12.9490   41.9052    7.9904 H       1  UNL1        0.1689
      8 C           9.8590   41.8975    7.8606 C.2     1  UNL1        0.4073
      9 O          10.3916   41.1971    6.9579 O.2     1  UNL1       -0.2260
     10 N          10.4566   41.9834    9.1605 N.am    1  UNL1       -0.2211
     11 H          10.0094   42.5409    9.8376 H       1  UNL1        0.1610
     12 O           8.6732   42.6067    7.6158 O.3     1  UNL1       -0.4417
     13 C           7.3455   42.0608    7.5869 C.3     1  UNL1        0.1378
     14 C           6.3672   43.2452    7.6014 C.3     1  UNL1        0.0437
     15 C           7.0895   41.1893    8.8316 C.3     1  UNL1        0.0437
     16 C           7.1211   41.2466    6.2983 C.3     1  UNL1        0.0437
     17 C          15.0852   40.4424    9.0530 C.2     1  UNL1        0.3595
     18 O          15.6230   39.3052    9.1393 O.2     1  UNL1       -0.2432
     19 O          15.8071   41.5329    8.5541 O.3     1  UNL1       -0.4444
     20 C          17.5475   43.2247    8.5697 C.3     1  UNL1        0.0513
     21 C          17.1784   41.7750    8.8619 C.3     1  UNL1        0.2089
@<TRIPOS>BOND
     1    20    21    1
     2    21    19    1
     3    17    19    1
     4    17     1    1
     5     2     4    1
     6     2     5   ar
     7     3    10    1
     8     3     6   ar
     9     8    12    1
    10    13    12    1
    11    13    14    1
    12    13    15    1
    13    13    16    1
    14    10     8   am
    15     6     1   ar
    16    17    18    2
    17     1     2   ar
    18     3     5   ar
    19     8     9    2
    20    10    11    1
    21     6     7    1
@<TRIPOS>MOLECULE
Molport-047-872-220
 21 21 0 0 0
SMALL
GASTEIGER

@<TRIPOS>ATOM
      1 C          14.1068   39.3667   10.7369 C.ar    1  UNL1        0.1641
      2 C          14.8884   40.1245    9.8833 C.ar    1  UNL1        0.1630
      3 C          12.8496   40.6135    9.5445 C.ar    1  UNL1        0.2039
      4 CL         16.6384   40.1105    9.7533 Cl      1  UNL1       -0.0595
      5 N          14.0996   40.9137    9.1279 N.ar    1  UNL1       -0.2017
      6 N          12.8198   39.6817   10.5167 N.ar    1  UNL1       -0.3194
      7 H          12.0268   39.3118   10.9679 H       1  UNL1        0.1689
      8 C          10.3864   41.1953    9.6674 C.2     1  UNL1        0.4073
      9 O          10.2491   40.6184   10.7798 O.2     1  UNL1       -0.2260
     10 N          11.6620   41.2190    9.0142 N.am    1  UNL1       -0.2211
     11 H          11.7274   41.6799    8.1467 H       1  UNL1        0.1610
     12 O           9.2985   41.8256    9.0443 O.3     1  UNL1       -0.4417
     13 C           8.4630   42.8437    9.6162 C.3     1  UNL1        0.1378
     14 C           7.3914   42.1326   10.4565 C.3     1  UNL1        0.0437
     15 C           7.7667   43.6595    8.5099 C.3     1  UNL1        0.0437
     16 C           9.2845   43.7669   10.5364 C.3     1  UNL1        0.0437
     17 C          14.5518   38.3773   11.7314 C.2     1  UNL1        0.3595
     18 O          15.5070   38.6436   12.5103 O.2     1  UNL1       -0.2432
     19 O          13.9073   37.1366   11.7971 O.3     1  UNL1       -0.4444
     20 C          12.2599   35.8936   10.5192 C.3     1  UNL1        0.0513
     21 C          13.7257   36.2842   10.6681 C.3     1  UNL1        0.2089
@<TRIPOS>BOND
     1    20    21    1
     2    21    19    1
     3    17    19    1
     4    17     1    1
     5     2     4    1
     6     2     5   ar
     7     3    10    1
     8     3     6   ar
     9     8    12    1
    10    13    12    1
    11    13    14    1
    12    13    15    1
    13    13    16    1
    14    10     8   am
    15     6     1   ar
    16    17    18    2
    17     1     2   ar
    18     3     5   ar
    19     8     9    2
    20    10    11    1
    21     6     7    1
@<TRIPOS>MOLECULE
Molport-047-872-220
 21 21 0 0 0
SMALL
GASTEIGER

@<TRIPOS>ATOM
      1 C          14.2831   40.2708    9.6624 C.ar    1  UNL1        0.1641
      2 C          13.6584   39.7168   10.7653 C.ar    1  UNL1        0.1630
      3 C          12.1826   40.6320    9.5426 C.ar    1  UNL1        0.2039
      4 CL         14.4148   38.8433   12.0861 Cl      1  UNL1       -0.0595
      5 N          12.3317   39.9420   10.6949 N.ar    1  UNL1       -0.2017
      6 N          13.3437   40.8472    8.8946 N.ar    1  UNL1       -0.3194
      7 H          13.4753   41.3234    8.0431 H       1  UNL1        0.1689
      8 C          10.4572   42.4479    9.1595 C.2     1  UNL1        0.4073
      9 O          11.1697   43.3208    9.7248 O.2     1  UNL1       -0.2260
     10 N          10.9195   41.0960    9.0451 N.am    1  UNL1       -0.2211
     11 H          10.3332   40.4446    8.5966 H       1  UNL1        0.1610
     12 O           9.1997   42.7771    8.6308 O.3     1  UNL1       -0.4417
     13 C           7.9239   42.4196    9.1838 C.3     1  UNL1        0.1378
     14 C           6.9705   43.5959    8.9235 C.3     1  UNL1        0.0437
     15 C           8.0344   42.1966   10.7045 C.3     1  UNL1        0.0437
     16 C           7.3640   41.1632    8.4899 C.3     1  UNL1        0.0437
     17 C          15.7181   40.2597    9.3355 C.2     1  UNL1        0.3595
     18 O          16.2606   41.2740    8.8189 O.2     1  UNL1       -0.2432
     19 O          16.4701   39.1089    9.5982 O.3     1  UNL1       -0.4444
     20 C          17.9611   37.6825   10.8766 C.3     1  UNL1        0.0513
     21 C          17.6320   39.1007   10.4252 C.3     1  UNL1        0.2089
@<TRIPOS>BOND
     1    20    21    1
     2    21    19    1
     3    17    19    1
     4    17     1    1
     5     2     4    1
     6     2     5   ar
     7     3    10    1
     8     3     6   ar
     9     8    12    1
    10    13    12    1
    11    13    14    1
    12    13    15    1
    13    13    16    1
    14    10     8   am
    15     6     1   ar
    16    17    18    2
    17     1     2   ar
    18     3     5   ar
    19     8     9    2
    20    10    11    1
    21     6     7    1
@<TRIPOS>MOLECULE
Molport-047-872-220
 21 21 0 0 0
SMALL
GASTEIGER

@<TRIPOS>ATOM
      1 C          10.5312   40.9512    8.5061 C.ar    1  UNL1        0.1641
      2 C          11.0295   41.0563    9.7923 C.ar    1  UNL1        0.1630
      3 C          12.6211   41.3782    8.4235 C.ar    1  UNL1        0.2039
      4 CL         10.1382   40.8790   11.2935 Cl      1  UNL1       -0.0595
      5 N          12.3489   41.3259    9.7461 N.ar    1  UNL1       -0.2017
      6 N          11.5432   41.1560    7.6469 N.ar    1  UNL1       -0.3194
      7 H          11.5053   41.1459    6.6632 H       1  UNL1        0.1689
      8 C          14.1737   42.5230    6.7803 C.2     1  UNL1        0.4073
      9 O          13.2211   43.1244    6.2145 O.2     1  UNL1       -0.2260
     10 N          13.9238   41.6435    7.8841 N.am    1  UNL1       -0.2211
     11 H          14.6949   41.1929    8.2984 H       1  UNL1        0.1610
     12 O          15.4960   42.6993    6.3451 O.3     1  UNL1       -0.4417
     13 C          16.2787   43.8971    6.4644 C.3     1  UNL1        0.1378
     14 C          16.6885   44.0268    7.9393 C.3     1  UNL1        0.0437
     15 C          15.4455   45.1317    6.0696 C.3     1  UNL1        0.0437
     16 C          17.5515   43.8022    5.6014 C.3     1  UNL1        0.0437
     17 C           9.1472   40.6688    8.0928 C.2     1  UNL1        0.3595
     18 O           8.8958   39.6906    7.3378 O.2     1  UNL1       -0.2432
     19 O           8.1161   41.5021    8.5419 O.3     1  UNL1       -0.4444
     20 C           7.3931   42.8815    6.6801 C.3     1  UNL1        0.0513
     21 C           6.9924   41.8636    7.7415 C.3     1  UNL1        0.2089
@<TRIPOS>BOND
     1    20    21    1
     2    21    19    1
     3    17    19    1
     4    17     1    1
     5     2     4    1
     6     2     5   ar
     7     3    10    1
     8     3     6   ar
     9     8    12    1
    10    13    12    1
    11    13    14    1
    12    13    15    1
    13    13    16    1
    14    10     8   am
    15     6     1   ar
    16    17    18    2
    17     1     2   ar
    18     3     5   ar
    19     8     9    2
    20    10    11    1
    21     6     7    1
