@<TRIPOS>MOLECULE
MolPort-039-106-887 CSSS00159907408 MCULE-2942752432 PubChem-118767861
 28 31 0 0 0
SMALL
GASTEIGER

@<TRIPOS>ATOM
      1 C          11.6041   40.7171    9.1366 C.2     1  UNL1        0.3047
      2 N          12.4984   40.0084    8.2762 N.am    1  UNL1       -0.2850
      3 N          10.2051   40.4102    9.0884 N.am    1  UNL1       -0.2682
      4 O          12.0473   41.6001    9.9202 O.2     1  UNL1       -0.2525
      5 H          12.1242   39.3451    7.6523 H       1  UNL1        0.1513
      6 H           9.9272   39.7202    8.4435 H       1  UNL1        0.1564
      7 C           9.1673   41.0031    9.8813 C.ar    1  UNL1        0.0546
      8 C           8.1237   41.6713    9.2321 C.ar    1  UNL1        0.0516
      9 C           7.0892   42.2643    9.9634 C.ar    1  UNL1        0.1396
     10 C           7.1015   42.1827   11.3648 C.ar    1  UNL1        0.0370
     11 C           8.1390   41.5171   12.0215 C.ar    1  UNL1        0.0044
     12 C           9.1684   40.9293   11.2823 C.ar    1  UNL1        0.0149
     13 O           6.0637   42.9212    9.2747 O.3     1  UNL1       -0.4791
     14 C           4.8293   42.2989    8.9347 C.3     1  UNL1        0.1659
     15 C           3.6839   43.0503    9.5904 C.3     1  UNL1        0.0435
     16 C           3.0932   42.1208   10.6287 C.3     1  UNL1        0.0038
     17 C           3.4603   40.7289   10.1751 C.3     1  UNL1        0.0038
     18 C           4.7940   40.8802    9.4806 C.3     1  UNL1        0.0435
     19 C          14.4478   40.2209    9.7101 C.3     1  UNL1        0.0279
     20 C          13.9394   40.2242    8.2812 C.3     1  UNL1        0.1149
     21 C          14.2797   41.5205    7.6159 C.ar    1  UNL1        0.0981
     22 C          13.4238   42.2374    6.7604 C.ar    1  UNL1        0.1189
     23 C          15.0607   45.1392    5.6101 C.ar    1  UNL1        0.1590
     24 C          15.3315   43.2112    6.9957 C.ar    1  UNL1        0.1967
     25 N          14.1643   43.2918    6.4142 N.ar    1  UNL1       -0.2034
     26 N          13.9549   44.3397    5.6323 N.ar    1  UNL1       -0.1545
     27 N          15.4930   42.1288    7.7694 N.ar    1  UNL1       -0.2221
     28 S          16.3197   44.4990    6.5992 S.2     1  UNL1       -0.0258
@<TRIPOS>BOND
     1    20    19    1
     2    20     2    1
     3    20    21    1
     4     1     3   am
     5     8     9   ar
     6     9    13    1
     7    14    13    1
     8    14    15    1
     9    15    16    1
    10    16    17    1
    11    17    18    1
    12    18    14    1
    13    10    11   ar
    14    12     7   ar
    15    21    27   ar
    16    22    25   ar
    17    23    28   ar
    18    24    28   ar
    19    24    25   ar
    20     2     1   am
    21     3     7    1
    22    25    26   ar
    23     1     4    2
    24     7     8   ar
    25     9    10   ar
    26    11    12   ar
    27    21    22   ar
    28    23    26   ar
    29    24    27   ar
    30     2     5    1
    31     3     6    1
@<TRIPOS>MOLECULE
MolPort-039-106-887 CSSS00159907408 MCULE-2942752432 PubChem-118767861
 28 31 0 0 0
SMALL
GASTEIGER

@<TRIPOS>ATOM
      1 C          11.0586   40.8010    7.6620 C.2     1  UNL1        0.3047
      2 N          12.3729   41.3303    7.4758 N.am    1  UNL1       -0.2850
      3 N           9.9704   41.3682    6.9220 N.am    1  UNL1       -0.2682
      4 O          10.8679   39.8519    8.4702 O.2     1  UNL1       -0.2525
      5 H          12.4911   42.0908    6.8618 H       1  UNL1        0.1513
      6 H          10.1892   42.1157    6.3197 H       1  UNL1        0.1564
      7 C           8.5958   40.9611    6.9669 C.ar    1  UNL1        0.0546
      8 C           7.7737   41.4790    7.9735 C.ar    1  UNL1        0.0516
      9 C           6.4266   41.1116    8.0568 C.ar    1  UNL1        0.1396
     10 C           5.8975   40.2147    7.1153 C.ar    1  UNL1        0.0370
     11 C           6.7106   39.6931    6.1066 C.ar    1  UNL1        0.0044
     12 C           8.0552   40.0650    6.0327 C.ar    1  UNL1        0.0149
     13 O           5.6390   41.6543    9.0779 O.3     1  UNL1       -0.4791
     14 C           4.5812   40.9412    9.7098 C.3     1  UNL1        0.1659
     15 C           3.2615   41.6406    9.4348 C.3     1  UNL1        0.0435
     16 C           2.7784   42.1919   10.7590 C.3     1  UNL1        0.0038
     17 C           3.4449   41.3422   11.8135 C.3     1  UNL1        0.0038
     18 C           4.7768   40.9483   11.2176 C.3     1  UNL1        0.0435
     19 C          13.2743   40.7069    9.6438 C.3     1  UNL1        0.0279
     20 C          13.5458   40.7944    8.1542 C.3     1  UNL1        0.1149
     21 C          14.7417   41.6565    7.8980 C.ar    1  UNL1        0.0981
     22 C          15.9469   41.5998    8.6209 C.ar    1  UNL1        0.1189
     23 C          18.1880   44.0181    7.3750 C.ar    1  UNL1        0.1590
     24 C          15.9952   43.1130    7.0876 C.ar    1  UNL1        0.1967
     25 N          16.6843   42.5508    8.0447 N.ar    1  UNL1       -0.2034
     26 N          17.9084   43.0108    8.2523 N.ar    1  UNL1       -0.1545
     27 N          14.7616   42.6149    6.9250 N.ar    1  UNL1       -0.2221
     28 S          16.8558   44.3248    6.3241 S.2     1  UNL1       -0.0258
@<TRIPOS>BOND
     1    20    19    1
     2    20     2    1
     3    20    21    1
     4     1     3   am
     5     8     9   ar
     6     9    13    1
     7    14    13    1
     8    14    15    1
     9    15    16    1
    10    16    17    1
    11    17    18    1
    12    18    14    1
    13    10    11   ar
    14    12     7   ar
    15    21    27   ar
    16    22    25   ar
    17    23    28   ar
    18    24    28   ar
    19    24    25   ar
    20     2     1   am
    21     3     7    1
    22    25    26   ar
    23     1     4    2
    24     7     8   ar
    25     9    10   ar
    26    11    12   ar
    27    21    22   ar
    28    23    26   ar
    29    24    27   ar
    30     2     5    1
    31     3     6    1
@<TRIPOS>MOLECULE
MolPort-039-106-887 CSSS00159907408 MCULE-2942752432 PubChem-118767861
 28 31 0 0 0
SMALL
GASTEIGER

@<TRIPOS>ATOM
      1 C          11.6297   40.1853    8.3933 C.2     1  UNL1        0.3047
      2 N          12.7662   40.4137    9.2292 N.am    1  UNL1       -0.2850
      3 N          10.3383   40.6106    8.8460 N.am    1  UNL1       -0.2682
      4 O          11.7699   39.6139    7.2779 O.2     1  UNL1       -0.2525
      5 H          12.6266   40.8346   10.1082 H       1  UNL1        0.1513
      6 H          10.3005   41.0371    9.7325 H       1  UNL1        0.1564
      7 C           9.0951   40.4800    8.1427 C.ar    1  UNL1        0.0546
      8 C           8.0624   41.3790    8.4300 C.ar    1  UNL1        0.0516
      9 C           6.8327   41.2912    7.7690 C.ar    1  UNL1        0.1396
     10 C           6.6387   40.2894    6.8049 C.ar    1  UNL1        0.0370
     11 C           7.6642   39.3879    6.5112 C.ar    1  UNL1        0.0044
     12 C           8.8882   39.4829    7.1778 C.ar    1  UNL1        0.0149
     13 O           5.8273   42.2114    8.0849 O.3     1  UNL1       -0.4791
     14 C           5.2953   42.3659    9.3963 C.3     1  UNL1        0.1659
     15 C           5.0716   40.9985   10.0182 C.3     1  UNL1        0.0435
     16 C           3.5745   40.8257   10.1591 C.3     1  UNL1        0.0038
     17 C           3.0119   42.2257   10.1986 C.3     1  UNL1        0.0038
     18 C           3.9372   43.0463    9.3302 C.3     1  UNL1        0.0435
     19 C          14.8800   39.5410   10.0488 C.3     1  UNL1        0.0279
     20 C          14.1223   40.0514    8.8382 C.3     1  UNL1        0.1149
     21 C          14.8310   41.2280    8.2448 C.ar    1  UNL1        0.0981
     22 C          14.2827   42.1022    7.2890 C.ar    1  UNL1        0.1189
     23 C          16.6668   44.5476    6.4177 C.ar    1  UNL1        0.1590
     24 C          16.3077   42.6320    7.8003 C.ar    1  UNL1        0.1967
     25 N          15.2797   42.9597    7.0637 N.ar    1  UNL1       -0.2034
     26 N          15.4188   44.0141    6.2750 N.ar    1  UNL1       -0.1545
     27 N          16.1159   41.5543    8.5737 N.ar    1  UNL1       -0.2221
     28 S          17.6026   43.6611    7.5629 S.2     1  UNL1       -0.0258
@<TRIPOS>BOND
     1    20    19    1
     2    20     2    1
     3    20    21    1
     4     1     3   am
     5     8     9   ar
     6     9    13    1
     7    14    13    1
     8    14    15    1
     9    15    16    1
    10    16    17    1
    11    17    18    1
    12    18    14    1
    13    10    11   ar
    14    12     7   ar
    15    21    27   ar
    16    22    25   ar
    17    23    28   ar
    18    24    28   ar
    19    24    25   ar
    20     2     1   am
    21     3     7    1
    22    25    26   ar
    23     1     4    2
    24     7     8   ar
    25     9    10   ar
    26    11    12   ar
    27    21    22   ar
    28    23    26   ar
    29    24    27   ar
    30     2     5    1
    31     3     6    1
@<TRIPOS>MOLECULE
MolPort-039-106-887 CSSS00159907408 MCULE-2942752432 PubChem-118767861
 28 31 0 0 0
SMALL
GASTEIGER

@<TRIPOS>ATOM
      1 C          10.3986   41.9312    8.0638 C.2     1  UNL1        0.3047
      2 N          11.7656   41.7202    8.4231 N.am    1  UNL1       -0.2850
      3 N           9.5379   42.6186    8.9805 N.am    1  UNL1       -0.2682
      4 O           9.9639   41.5120    6.9568 O.2     1  UNL1       -0.2525
      5 H          12.0733   42.0304    9.3054 H       1  UNL1        0.1513
      6 H           9.9403   42.9056    9.8320 H       1  UNL1        0.1564
      7 C           8.1517   42.9322    8.7874 C.ar    1  UNL1        0.0546
      8 C           7.2209   41.8878    8.7787 C.ar    1  UNL1        0.0516
      9 C           5.8584   42.1452    8.5947 C.ar    1  UNL1        0.1396
     10 C           5.4247   43.4689    8.4199 C.ar    1  UNL1        0.0370
     11 C           6.3467   44.5179    8.4278 C.ar    1  UNL1        0.0044
     12 C           7.7056   44.2505    8.6109 C.ar    1  UNL1        0.0149
     13 O           4.9608   41.0719    8.5945 O.3     1  UNL1       -0.4791
     14 C           4.2317   40.6648    9.7475 C.3     1  UNL1        0.1659
     15 C           2.8130   41.2007    9.6670 C.3     1  UNL1        0.0435
     16 C           2.6740   42.2281   10.7698 C.3     1  UNL1        0.0038
     17 C           3.7203   41.8603   11.7936 C.3     1  UNL1        0.0038
     18 C           4.8576   41.2634   10.9972 C.3     1  UNL1        0.0435
     19 C          12.9873   39.6566    8.0353 C.3     1  UNL1        0.0279
     20 C          12.7241   41.0663    7.5417 C.3     1  UNL1        0.1149
     21 C          14.0031   41.8410    7.4880 C.ar    1  UNL1        0.0981
     22 C          14.2170   42.9922    6.7088 C.ar    1  UNL1        0.1189
     23 C          17.5249   44.1243    7.1547 C.ar    1  UNL1        0.1590
     24 C          15.9749   42.4325    7.8220 C.ar    1  UNL1        0.1967
     25 N          15.4862   43.3025    6.9788 N.ar    1  UNL1       -0.2034
     26 N          16.2991   44.2651    6.5715 N.ar    1  UNL1       -0.1545
     27 N          15.1130   41.4766    8.1958 N.ar    1  UNL1       -0.2221
     28 S          17.5703   42.7542    8.2005 S.2     1  UNL1       -0.0258
@<TRIPOS>BOND
     1    20    19    1
     2    20     2    1
     3    20    21    1
     4     1     3   am
     5     8     9   ar
     6     9    13    1
     7    14    13    1
     8    14    15    1
     9    15    16    1
    10    16    17    1
    11    17    18    1
    12    18    14    1
    13    10    11   ar
    14    12     7   ar
    15    21    27   ar
    16    22    25   ar
    17    23    28   ar
    18    24    28   ar
    19    24    25   ar
    20     2     1   am
    21     3     7    1
    22    25    26   ar
    23     1     4    2
    24     7     8   ar
    25     9    10   ar
    26    11    12   ar
    27    21    22   ar
    28    23    26   ar
    29    24    27   ar
    30     2     5    1
    31     3     6    1
@<TRIPOS>MOLECULE
MolPort-039-106-887 CSSS00159907408 MCULE-2942752432 PubChem-118767861
 28 31 0 0 0
SMALL
GASTEIGER

@<TRIPOS>ATOM
      1 C          12.2407   40.4849   10.0150 C.2     1  UNL1        0.3047
      2 N          13.6269   40.2640   10.2832 N.am    1  UNL1       -0.2850
      3 N          11.3997   40.9756   11.0664 N.am    1  UNL1       -0.2682
      4 O          11.7725   40.2451    8.8689 O.2     1  UNL1       -0.2525
      5 H          13.9621   40.4302   11.1939 H       1  UNL1        0.1513
      6 H          11.8288   41.1275   11.9393 H       1  UNL1        0.1564
      7 C           9.9983   41.2686   10.9800 C.ar    1  UNL1        0.0546
      8 C           9.5198   41.9383    9.8488 C.ar    1  UNL1        0.0516
      9 C           8.1611   42.2447    9.7199 C.ar    1  UNL1        0.1396
     10 C           7.2709   41.8712   10.7392 C.ar    1  UNL1        0.0370
     11 C           7.7395   41.2019   11.8719 C.ar    1  UNL1        0.0044
     12 C           9.0986   40.9016   11.9919 C.ar    1  UNL1        0.0149
     13 O           7.7240   42.9137    8.5715 O.3     1  UNL1       -0.4791
     14 C           6.4193   42.7540    8.0247 C.3     1  UNL1        0.1659
     15 C           6.0723   43.9646    7.1761 C.3     1  UNL1        0.0435
     16 C           4.9523   44.6892    7.8912 C.3     1  UNL1        0.0038
     17 C           4.2848   43.6442    8.7518 C.3     1  UNL1        0.0038
     18 C           5.3907   42.6913    9.1427 C.3     1  UNL1        0.0435
     19 C          15.6092   38.9097    9.9115 C.3     1  UNL1        0.0279
     20 C          14.5662   39.8037    9.2688 C.3     1  UNL1        0.1149
     21 C          15.2268   40.9662    8.5972 C.ar    1  UNL1        0.0981
     22 C          14.6557   41.7335    7.5660 C.ar    1  UNL1        0.1189
     23 C          16.9306   44.2253    6.5470 C.ar    1  UNL1        0.1590
     24 C          16.6395   42.4068    8.0697 C.ar    1  UNL1        0.1967
     25 N          15.6124   42.6219    7.2915 N.ar    1  UNL1       -0.2034
     26 N          15.7147   43.6177    6.4248 N.ar    1  UNL1       -0.1545
     27 N          16.4860   41.3839    8.9220 N.ar    1  UNL1       -0.2221
     28 S          17.8852   43.4808    7.7748 S.2     1  UNL1       -0.0258
@<TRIPOS>BOND
     1    20    19    1
     2    20     2    1
     3    20    21    1
     4     1     3   am
     5     8     9   ar
     6     9    13    1
     7    14    13    1
     8    14    15    1
     9    15    16    1
    10    16    17    1
    11    17    18    1
    12    18    14    1
    13    10    11   ar
    14    12     7   ar
    15    21    27   ar
    16    22    25   ar
    17    23    28   ar
    18    24    28   ar
    19    24    25   ar
    20     2     1   am
    21     3     7    1
    22    25    26   ar
    23     1     4    2
    24     7     8   ar
    25     9    10   ar
    26    11    12   ar
    27    21    22   ar
    28    23    26   ar
    29    24    27   ar
    30     2     5    1
    31     3     6    1
@<TRIPOS>MOLECULE
MolPort-039-106-887 CSSS00159907408 MCULE-2942752432 PubChem-118767861
 28 31 0 0 0
SMALL
GASTEIGER

@<TRIPOS>ATOM
      1 C          11.7223   39.8396    8.0339 C.2     1  UNL1        0.3047
      2 N          13.0419   39.2912    8.0163 N.am    1  UNL1       -0.2850
      3 N          10.7670   39.3808    7.0694 N.am    1  UNL1       -0.2682
      4 O          11.4133   40.7164    8.8859 O.2     1  UNL1       -0.2525
      5 H          13.2674   38.6301    7.3225 H       1  UNL1        0.1513
      6 H          11.0805   38.7054    6.4253 H       1  UNL1        0.1564
      7 C           9.4018   39.8025    6.9441 C.ar    1  UNL1        0.0546
      8 C           9.0563   41.0938    7.3571 C.ar    1  UNL1        0.0516
      9 C           7.7379   41.5494    7.2533 C.ar    1  UNL1        0.1396
     10 C           6.7542   40.6983    6.7255 C.ar    1  UNL1        0.0370
     11 C           7.0900   39.4078    6.3101 C.ar    1  UNL1        0.0044
     12 C           8.4093   38.9614    6.4191 C.ar    1  UNL1        0.0149
     13 O           7.4355   42.8484    7.6761 O.3     1  UNL1       -0.4791
     14 C           7.3207   43.2158    9.0467 C.3     1  UNL1        0.1659
     15 C           8.5249   44.0474    9.4525 C.3     1  UNL1        0.0435
     16 C           9.3153   43.2142   10.4384 C.3     1  UNL1        0.0038
     17 C           8.3217   42.2436   11.0292 C.3     1  UNL1        0.0038
     18 C           7.3304   41.9720    9.9213 C.3     1  UNL1        0.0435
     19 C          13.4216   39.9720   10.3172 C.3     1  UNL1        0.0279
     20 C          14.0684   39.6671    8.9797 C.3     1  UNL1        0.1149
     21 C          14.8349   40.8572    8.4945 C.ar    1  UNL1        0.0981
     22 C          14.3595   41.7984    7.5637 C.ar    1  UNL1        0.1189
     23 C          16.8422   44.2274    6.9648 C.ar    1  UNL1        0.1590
     24 C          16.3650   42.2457    8.2120 C.ar    1  UNL1        0.1967
     25 N          15.3864   42.6414    7.4423 N.ar    1  UNL1       -0.2034
     26 N          15.5920   43.7352    6.7251 N.ar    1  UNL1       -0.1545
     27 N          16.1070   41.1309    8.9098 N.ar    1  UNL1       -0.2221
     28 S          17.6939   43.2531    8.1043 S.2     1  UNL1       -0.0258
@<TRIPOS>BOND
     1    20    19    1
     2    20     2    1
     3    20    21    1
     4     1     3   am
     5     8     9   ar
     6     9    13    1
     7    14    13    1
     8    14    15    1
     9    15    16    1
    10    16    17    1
    11    17    18    1
    12    18    14    1
    13    10    11   ar
    14    12     7   ar
    15    21    27   ar
    16    22    25   ar
    17    23    28   ar
    18    24    28   ar
    19    24    25   ar
    20     2     1   am
    21     3     7    1
    22    25    26   ar
    23     1     4    2
    24     7     8   ar
    25     9    10   ar
    26    11    12   ar
    27    21    22   ar
    28    23    26   ar
    29    24    27   ar
    30     2     5    1
    31     3     6    1
@<TRIPOS>MOLECULE
MolPort-039-106-887 CSSS00159907408 MCULE-2942752432 PubChem-118767861
 28 31 0 0 0
SMALL
GASTEIGER

@<TRIPOS>ATOM
      1 C          11.9906   40.6603    9.8608 C.2     1  UNL1        0.3047
      2 N          13.3911   40.4872   10.0866 N.am    1  UNL1       -0.2850
      3 N          11.1733   41.1658   10.9239 N.am    1  UNL1       -0.2682
      4 O          11.4896   40.3663    8.7416 O.2     1  UNL1       -0.2525
      5 H          13.7531   40.6955   10.9782 H       1  UNL1        0.1513
      6 H          11.6281   41.3610   11.7749 H       1  UNL1        0.1564
      7 C           9.7620   41.4171   10.8778 C.ar    1  UNL1        0.0546
      8 C           9.2200   42.0006    9.7275 C.ar    1  UNL1        0.0516
      9 C           7.8492   42.2637    9.6364 C.ar    1  UNL1        0.1396
     10 C           7.0113   41.9339   10.7134 C.ar    1  UNL1        0.0370
     11 C           7.5434   41.3506   11.8655 C.ar    1  UNL1        0.0044
     12 C           8.9140   41.0931   11.9474 C.ar    1  UNL1        0.0149
     13 O           7.3481   42.8465    8.4673 O.3     1  UNL1       -0.4791
     14 C           7.2053   42.1370    7.2414 C.3     1  UNL1        0.1659
     15 C           6.7766   40.7086    7.5280 C.3     1  UNL1        0.0435
     16 C           7.9348   39.8196    7.1289 C.3     1  UNL1        0.0038
     17 C           8.7191   40.6154    6.1142 C.3     1  UNL1        0.0038
     18 C           8.5448   42.0589    6.5263 C.3     1  UNL1        0.0435
     19 C          15.3441   39.1013    9.6786 C.3     1  UNL1        0.0279
     20 C          14.3070   40.0162    9.0559 C.3     1  UNL1        0.1149
     21 C          14.9773   41.1706    8.3800 C.ar    1  UNL1        0.0981
     22 C          14.3935   41.9704    7.3811 C.ar    1  UNL1        0.1189
     23 C          16.7026   44.4141    6.3231 C.ar    1  UNL1        0.1590
     24 C          16.4118   42.5797    7.8265 C.ar    1  UNL1        0.1967
     25 N          15.3653   42.8362    7.0876 N.ar    1  UNL1       -0.2034
     26 N          15.4664   43.8428    6.2334 N.ar    1  UNL1       -0.1545
     27 N          16.2582   41.5476    8.6677 N.ar    1  UNL1       -0.2221
     28 S          17.6768   43.6231    7.5056 S.2     1  UNL1       -0.0258
@<TRIPOS>BOND
     1    20    19    1
     2    20     2    1
     3    20    21    1
     4     1     3   am
     5     8     9   ar
     6     9    13    1
     7    14    13    1
     8    14    15    1
     9    15    16    1
    10    16    17    1
    11    17    18    1
    12    18    14    1
    13    10    11   ar
    14    12     7   ar
    15    21    27   ar
    16    22    25   ar
    17    23    28   ar
    18    24    28   ar
    19    24    25   ar
    20     2     1   am
    21     3     7    1
    22    25    26   ar
    23     1     4    2
    24     7     8   ar
    25     9    10   ar
    26    11    12   ar
    27    21    22   ar
    28    23    26   ar
    29    24    27   ar
    30     2     5    1
    31     3     6    1
@<TRIPOS>MOLECULE
MolPort-039-106-887 CSSS00159907408 MCULE-2942752432 PubChem-118767861
 28 31 0 0 0
SMALL
GASTEIGER

@<TRIPOS>ATOM
      1 C          11.8600   40.4437    8.9208 C.2     1  UNL1        0.3047
      2 N          13.0331   40.5470    9.7305 N.am    1  UNL1       -0.2850
      3 N          10.6308   40.9983    9.4054 N.am    1  UNL1       -0.2682
      4 O          11.9141   39.8679    7.8001 O.2     1  UNL1       -0.2525
      5 H          12.9585   40.9745   10.6142 H       1  UNL1        0.1513
      6 H          10.6580   41.4207   10.2943 H       1  UNL1        0.1564
      7 C           9.3649   41.0024    8.7311 C.ar    1  UNL1        0.0546
      8 C           9.3060   40.5500    7.4086 C.ar    1  UNL1        0.0516
      9 C           8.0938   40.5348    6.7108 C.ar    1  UNL1        0.1396
     10 C           6.9250   40.9771    7.3505 C.ar    1  UNL1        0.0370
     11 C           6.9741   41.4299    8.6708 C.ar    1  UNL1        0.0044
     12 C           8.1899   41.4426    9.3587 C.ar    1  UNL1        0.0149
     13 O           8.0787   40.0727    5.3903 O.3     1  UNL1       -0.4791
     14 C           8.9390   39.0432    4.9143 C.3     1  UNL1        0.1659
     15 C          10.3848   39.4292    5.1729 C.3     1  UNL1        0.0435
     16 C          11.0211   39.6597    3.8190 C.3     1  UNL1        0.0038
     17 C          10.1882   38.8632    2.8444 C.3     1  UNL1        0.0038
     18 C           8.7866   38.8923    3.4090 C.3     1  UNL1        0.0435
     19 C          15.0978   39.5328   10.5113 C.3     1  UNL1        0.0279
     20 C          14.3346   40.0479    9.3062 C.3     1  UNL1        0.1149
     21 C          15.1152   41.1270    8.6243 C.ar    1  UNL1        0.0981
     22 C          14.6318   41.9354    7.5797 C.ar    1  UNL1        0.1189
     23 C          17.1571   44.1655    6.5444 C.ar    1  UNL1        0.1590
     24 C          16.6719   42.4071    8.0879 C.ar    1  UNL1        0.1967
     25 N          15.6766   42.7167    7.3003 N.ar    1  UNL1       -0.2034
     26 N          15.8857   43.6850    6.4218 N.ar    1  UNL1       -0.1545
     27 N          16.4091   41.4169    8.9521 N.ar    1  UNL1       -0.2221
     28 S          18.0233   43.3428    7.7878 S.2     1  UNL1       -0.0258
@<TRIPOS>BOND
     1    20    19    1
     2    20     2    1
     3    20    21    1
     4     1     3   am
     5     8     9   ar
     6     9    13    1
     7    14    13    1
     8    14    15    1
     9    15    16    1
    10    16    17    1
    11    17    18    1
    12    18    14    1
    13    10    11   ar
    14    12     7   ar
    15    21    27   ar
    16    22    25   ar
    17    23    28   ar
    18    24    28   ar
    19    24    25   ar
    20     2     1   am
    21     3     7    1
    22    25    26   ar
    23     1     4    2
    24     7     8   ar
    25     9    10   ar
    26    11    12   ar
    27    21    22   ar
    28    23    26   ar
    29    24    27   ar
    30     2     5    1
    31     3     6    1
@<TRIPOS>MOLECULE
MolPort-039-106-887 CSSS00159907408 MCULE-2942752432 PubChem-118767861
 28 31 0 0 0
SMALL
GASTEIGER

@<TRIPOS>ATOM
      1 C          12.8292   41.6201    6.6210 C.2     1  UNL1        0.3047
      2 N          11.7293   41.6592    5.7094 N.am    1  UNL1       -0.2850
      3 N          13.9530   42.4787    6.3901 N.am    1  UNL1       -0.2682
      4 O          12.8045   40.8362    7.6085 O.2     1  UNL1       -0.2525
      5 H          11.7854   42.2578    4.9299 H       1  UNL1        0.1513
      6 H          13.9113   43.0545    5.5926 H       1  UNL1        0.1564
      7 C          15.1323   42.5872    7.1993 C.ar    1  UNL1        0.0546
      8 C          15.4729   41.5203    8.0379 C.ar    1  UNL1        0.0516
      9 C          16.6141   41.5802    8.8445 C.ar    1  UNL1        0.1396
     10 C          17.4253   42.7253    8.8064 C.ar    1  UNL1        0.0370
     11 C          17.0935   43.7949    7.9719 C.ar    1  UNL1        0.0044
     12 C          15.9509   43.7261    7.1711 C.ar    1  UNL1        0.0149
     13 O          16.9194   40.4905    9.6671 O.3     1  UNL1       -0.4791
     14 C          16.0978   39.3319    9.7639 C.3     1  UNL1        0.1659
     15 C          14.8407   39.6645   10.5483 C.3     1  UNL1        0.0435
     16 C          14.9222   38.8913   11.8469 C.3     1  UNL1        0.0038
     17 C          15.8399   37.7272   11.5627 C.3     1  UNL1        0.0038
     18 C          16.8235   38.2426   10.5376 C.3     1  UNL1        0.0435
     19 C          10.0579   40.3467    4.5323 C.3     1  UNL1        0.0279
     20 C          10.5284   40.8523    5.8826 C.3     1  UNL1        0.1149
     21 C           9.4473   41.6519    6.5390 C.ar    1  UNL1        0.0981
     22 C           9.3790   41.9407    7.9138 C.ar    1  UNL1        0.1189
     23 C           6.4773   43.8262    8.5833 C.ar    1  UNL1        0.1590
     24 C           7.7093   42.7669    6.8311 C.ar    1  UNL1        0.1967
     25 N           8.2527   42.6490    8.0133 N.ar    1  UNL1       -0.2034
     26 N           7.6149   43.2157    9.0258 N.ar    1  UNL1       -0.1545
     27 N           8.3914   42.1694    5.8441 N.ar    1  UNL1       -0.2221
     28 S           6.2843   43.6382    6.8803 S.2     1  UNL1       -0.0258
@<TRIPOS>BOND
     1    20    19    1
     2    20     2    1
     3    20    21    1
     4     1     3   am
     5     8     9   ar
     6     9    13    1
     7    14    13    1
     8    14    15    1
     9    15    16    1
    10    16    17    1
    11    17    18    1
    12    18    14    1
    13    10    11   ar
    14    12     7   ar
    15    21    27   ar
    16    22    25   ar
    17    23    28   ar
    18    24    28   ar
    19    24    25   ar
    20     2     1   am
    21     3     7    1
    22    25    26   ar
    23     1     4    2
    24     7     8   ar
    25     9    10   ar
    26    11    12   ar
    27    21    22   ar
    28    23    26   ar
    29    24    27   ar
    30     2     5    1
    31     3     6    1
@<TRIPOS>MOLECULE
MolPort-039-106-887 CSSS00159907408 MCULE-2942752432 PubChem-118767861
 28 31 0 0 0
SMALL
GASTEIGER

@<TRIPOS>ATOM
      1 C           8.6965   41.0312    8.6091 C.2     1  UNL1        0.3047
      2 N           9.6838   40.2133    9.2405 N.am    1  UNL1       -0.2850
      3 N           7.8474   41.8485    9.4243 N.am    1  UNL1       -0.2682
      4 O           8.5784   41.0243    7.3536 O.2     1  UNL1       -0.2525
      5 H           9.7363   40.2135   10.2236 H       1  UNL1        0.1513
      6 H           7.9854   41.7939   10.3976 H       1  UNL1        0.1564
      7 C           6.8176   42.7380    8.9708 C.ar    1  UNL1        0.0546
      8 C           5.4824   42.4044    9.2220 C.ar    1  UNL1        0.0516
      9 C           4.4441   43.2412    8.7995 C.ar    1  UNL1        0.1396
     10 C           4.7510   44.4298    8.1185 C.ar    1  UNL1        0.0370
     11 C           6.0811   44.7712    7.8638 C.ar    1  UNL1        0.0044
     12 C           7.1109   43.9282    8.2885 C.ar    1  UNL1        0.0149
     13 O           3.1228   42.8711    9.0727 O.3     1  UNL1       -0.4791
     14 C           2.7752   41.6853    9.7796 C.3     1  UNL1        0.1659
     15 C           2.4842   42.0256   11.2308 C.3     1  UNL1        0.0435
     16 C           3.5833   41.3894   12.0544 C.3     1  UNL1        0.0038
     17 C           4.1096   40.2539   11.2108 C.3     1  UNL1        0.0038
     18 C           3.9483   40.7179    9.7816 C.3     1  UNL1        0.0435
     19 C          10.8422   38.0780    9.2393 C.3     1  UNL1        0.0279
     20 C          10.6164   39.3792    8.4937 C.3     1  UNL1        0.1149
     21 C          11.9170   40.0919    8.2951 C.ar    1  UNL1        0.0981
     22 C          13.0765   39.8841    9.0638 C.ar    1  UNL1        0.1189
     23 C          15.6417   42.0222    7.9364 C.ar    1  UNL1        0.1590
     24 C          13.3690   41.3918    7.5524 C.ar    1  UNL1        0.1967
     25 N          13.9459   40.7429    8.5286 N.ar    1  UNL1       -0.2034
     26 N          15.2073   41.0496    8.7896 N.ar    1  UNL1       -0.1545
     27 N          12.0918   41.0480    7.3355 N.ar    1  UNL1       -0.2221
     28 S          14.3998   42.4960    6.8381 S.2     1  UNL1       -0.0258
@<TRIPOS>BOND
     1    20    19    1
     2    20     2    1
     3    20    21    1
     4     1     3   am
     5     8     9   ar
     6     9    13    1
     7    14    13    1
     8    14    15    1
     9    15    16    1
    10    16    17    1
    11    17    18    1
    12    18    14    1
    13    10    11   ar
    14    12     7   ar
    15    21    27   ar
    16    22    25   ar
    17    23    28   ar
    18    24    28   ar
    19    24    25   ar
    20     2     1   am
    21     3     7    1
    22    25    26   ar
    23     1     4    2
    24     7     8   ar
    25     9    10   ar
    26    11    12   ar
    27    21    22   ar
    28    23    26   ar
    29    24    27   ar
    30     2     5    1
    31     3     6    1
