@<TRIPOS>MOLECULE
MolPort-047-015-566 MCULE-8578729561 PubChem-155985313
 24 26 0 0 0
SMALL
GASTEIGER

@<TRIPOS>ATOM
      1 C          13.0417   40.4201    8.1343 C.ar    1  UNL1        0.1411
      2 C          11.8215   40.9179    6.1719 C.ar    1  UNL1        0.0635
      3 C          10.7844   40.5412    5.1767 C.3     1  UNL1        0.0522
      4 C          12.5133   42.1195    6.0365 C.ar    1  UNL1        0.0492
      5 C          13.4843   42.4472    6.9890 C.ar    1  UNL1        0.1361
      6 N          12.0953   40.0912    7.2134 N.ar    1  UNL1       -0.2349
      7 N          13.7250   41.5890    8.0155 N.ar    1  UNL1       -0.2159
      8 C          13.3375   39.5068    9.2766 C.3     1  UNL1        0.0746
      9 C          12.8781   40.1259   10.5981 C.3     1  UNL1        0.0104
     10 C          13.2789   39.2484   11.7868 C.3     1  UNL1        0.0178
     11 C          14.6629   38.6109   11.6052 C.3     1  UNL1        0.0722
     12 C          14.8284   39.1211    9.2923 C.3     1  UNL1        0.0797
     13 N          15.4461   39.3340   10.6037 N.3     1  UNL1       -0.2702
     14 C          16.7571   38.7105   10.5528 C.3     1  UNL1        0.1042
     15 C          17.7909   39.7237   10.1009 C.3     1  UNL1        0.1544
     16 O          19.0369   39.3798   10.6222 O.3     1  UNL1       -0.3805
     17 H          18.9916   39.3740   11.5911 H       1  UNL1        0.2105
     18 N          14.2350   43.6663    6.9135 N.pl3   1  UNL1       -0.2781
     19 H          13.7279   44.5047    7.0093 H       1  UNL1        0.1555
     20 C          15.6482   43.7882    6.7126 C.ar    1  UNL1        0.1646
     21 C          18.0970   43.9203    6.9214 C.ar    1  UNL1        0.0588
     22 C          17.5919   44.0706    5.6290 C.ar    1  UNL1        0.1079
     23 N          16.2375   43.9969    5.5183 N.ar    1  UNL1       -0.2224
     24 S          16.7765   43.6878    7.9426 S.2     1  UNL1       -0.0508
@<TRIPOS>BOND
     1     1     7   ar
     2     8     1    1
     3     8     9    1
     4     9    10    1
     5    10    11    1
     6    11    13    1
     7    14    13    1
     8    14    15    1
     9    15    16    1
    10    12    13    1
    11    12     8    1
    12     2     6   ar
    13     3     2    1
    14     4     5   ar
    15     5    18    1
    16    20    24   ar
    17    21    24   ar
    18    22    23   ar
    19    18    20    1
    20     1     6   ar
    21     2     4   ar
    22     5     7   ar
    23    20    23   ar
    24    21    22   ar
    25    18    19    1
    26    16    17    1
@<TRIPOS>MOLECULE
MolPort-047-015-566 MCULE-8578729561 PubChem-155985313
 24 26 0 0 0
SMALL
GASTEIGER

@<TRIPOS>ATOM
      1 C          12.0357   39.7964    7.8340 C.ar    1  UNL1        0.1411
      2 C          10.5120   39.8930    6.0293 C.ar    1  UNL1        0.0635
      3 C           9.3500   39.3220    5.3003 C.3     1  UNL1        0.0522
      4 C          11.1291   41.0502    5.5593 C.ar    1  UNL1        0.0492
      5 C          12.2212   41.5645    6.2668 C.ar    1  UNL1        0.1361
      6 N          10.9728   39.2873    7.1535 N.ar    1  UNL1       -0.2349
      7 N          12.6481   40.9246    7.3877 N.ar    1  UNL1       -0.2159
      8 C          12.5367   39.1255    9.0690 C.3     1  UNL1        0.0746
      9 C          12.9939   40.1596   10.0997 C.3     1  UNL1        0.0104
     10 C          13.6145   39.4810   11.3236 C.3     1  UNL1        0.0178
     11 C          14.4553   38.2528   10.9502 C.3     1  UNL1        0.0722
     12 C          13.6399   38.1074    8.7251 C.3     1  UNL1        0.0797
     13 N          14.8432   38.2916    9.5405 N.3     1  UNL1       -0.2702
     14 C          15.6918   37.1380    9.2975 C.3     1  UNL1        0.1042
     15 C          14.8961   36.0528    8.5983 C.3     1  UNL1        0.1544
     16 O          14.8312   34.9254    9.4151 O.3     1  UNL1       -0.3805
     17 H          15.7286   34.6039    9.5944 H       1  UNL1        0.2105
     18 N          12.9049   42.7509    5.8422 N.pl3   1  UNL1       -0.2781
     19 H          12.4337   43.3261    5.1970 H       1  UNL1        0.1555
     20 C          14.2044   43.1844    6.2617 C.ar    1  UNL1        0.1646
     21 C          16.3303   44.3634    6.6461 C.ar    1  UNL1        0.0588
     22 C          16.1739   43.1598    7.3352 C.ar    1  UNL1        0.1079
     23 N          14.9970   42.5113    7.1197 N.ar    1  UNL1       -0.2224
     24 S          14.9279   44.5992    5.7414 S.2     1  UNL1       -0.0508
@<TRIPOS>BOND
     1     1     7   ar
     2     8     1    1
     3     8     9    1
     4     9    10    1
     5    10    11    1
     6    11    13    1
     7    14    13    1
     8    14    15    1
     9    15    16    1
    10    12    13    1
    11    12     8    1
    12     2     6   ar
    13     3     2    1
    14     4     5   ar
    15     5    18    1
    16    20    24   ar
    17    21    24   ar
    18    22    23   ar
    19    18    20    1
    20     1     6   ar
    21     2     4   ar
    22     5     7   ar
    23    20    23   ar
    24    21    22   ar
    25    18    19    1
    26    16    17    1
@<TRIPOS>MOLECULE
MolPort-047-015-566 MCULE-8578729561 PubChem-155985313
 24 26 0 0 0
SMALL
GASTEIGER

@<TRIPOS>ATOM
      1 C          11.8675   40.0406    8.2247 C.ar    1  UNL1        0.1411
      2 C          10.4506   39.6548    6.3724 C.ar    1  UNL1        0.0635
      3 C           9.4333   38.8143    5.6893 C.3     1  UNL1        0.0522
      4 C          10.9070   40.8245    5.7689 C.ar    1  UNL1        0.0492
      5 C          11.8652   41.5954    6.4361 C.ar    1  UNL1        0.1361
      6 N          10.9357   39.2830    7.5846 N.ar    1  UNL1       -0.2349
      7 N          12.3225   41.1844    7.6485 N.ar    1  UNL1       -0.2159
      8 C          12.3963   39.6261    9.5569 C.3     1  UNL1        0.0746
      9 C          13.8563   40.0545    9.7175 C.3     1  UNL1        0.0104
     10 C          14.4417   39.5352   11.0333 C.3     1  UNL1        0.0178
     11 C          13.9475   38.1242   11.3789 C.3     1  UNL1        0.0722
     12 C          12.1974   38.1145    9.7744 C.3     1  UNL1        0.0797
     13 N          13.4314   37.4436   10.1916 N.3     1  UNL1       -0.2702
     14 C          13.0584   36.0993   10.5962 C.3     1  UNL1        0.1042
     15 C          11.5476   35.9741   10.6327 C.3     1  UNL1        0.1544
     16 O          11.1880   34.9417   11.4972 O.3     1  UNL1       -0.3805
     17 H          11.5742   34.1087   11.1844 H       1  UNL1        0.2105
     18 N          12.3803   42.8104    5.8758 N.pl3   1  UNL1       -0.2781
     19 H          11.7861   43.3021    5.2639 H       1  UNL1        0.1555
     20 C          13.6720   43.3816    6.1161 C.ar    1  UNL1        0.1646
     21 C          15.9813   43.8837    6.8032 C.ar    1  UNL1        0.0588
     22 C          15.3451   44.8745    6.0539 C.ar    1  UNL1        0.1079
     23 N          14.0684   44.5927    5.6763 N.ar    1  UNL1       -0.2224
     24 S          14.8811   42.6198    6.9841 S.2     1  UNL1       -0.0508
@<TRIPOS>BOND
     1     1     7   ar
     2     8     1    1
     3     8     9    1
     4     9    10    1
     5    10    11    1
     6    11    13    1
     7    14    13    1
     8    14    15    1
     9    15    16    1
    10    12    13    1
    11    12     8    1
    12     2     6   ar
    13     3     2    1
    14     4     5   ar
    15     5    18    1
    16    20    24   ar
    17    21    24   ar
    18    22    23   ar
    19    18    20    1
    20     1     6   ar
    21     2     4   ar
    22     5     7   ar
    23    20    23   ar
    24    21    22   ar
    25    18    19    1
    26    16    17    1
@<TRIPOS>MOLECULE
MolPort-047-015-566 MCULE-8578729561 PubChem-155985313
 24 26 0 0 0
SMALL
GASTEIGER

@<TRIPOS>ATOM
      1 C          10.2920   40.6476    8.0995 C.ar    1  UNL1        0.1411
      2 C          12.3460   40.5210    9.2626 C.ar    1  UNL1        0.0635
      3 C          13.1241   40.0698   10.4453 C.3     1  UNL1        0.0522
      4 C          12.9768   41.2304    8.2429 C.ar    1  UNL1        0.0492
      5 C          12.2182   41.6423    7.1418 C.ar    1  UNL1        0.1361
      6 N          11.0202   40.2423    9.1753 N.ar    1  UNL1       -0.2349
      7 N          10.8934   41.3406    7.0968 N.ar    1  UNL1       -0.2159
      8 C           8.8352   40.3377    8.0100 C.3     1  UNL1        0.0746
      9 C           8.3919   40.2351    6.5492 C.3     1  UNL1        0.0104
     10 C           6.8784   40.0303    6.4455 C.3     1  UNL1        0.0178
     11 C           6.1035   40.8401    7.4935 C.3     1  UNL1        0.0722
     12 C           8.0107   41.3664    8.8061 C.3     1  UNL1        0.0797
     13 N           6.9175   41.9376    8.0153 N.3     1  UNL1       -0.2702
     14 C           6.0840   42.6884    8.9381 C.3     1  UNL1        0.1042
     15 C           5.8799   44.0975    8.4164 C.3     1  UNL1        0.1544
     16 O           6.6760   44.9813    9.1426 O.3     1  UNL1       -0.3805
     17 H           6.4284   44.9443   10.0797 H       1  UNL1        0.2105
     18 N          12.8000   42.3756    6.0559 N.pl3   1  UNL1       -0.2781
     19 H          12.4034   42.2366    5.1656 H       1  UNL1        0.1555
     20 C          13.8999   43.2901    6.1349 C.ar    1  UNL1        0.1646
     21 C          16.0169   44.4606    6.5884 C.ar    1  UNL1        0.0588
     22 C          15.1065   45.1484    5.7845 C.ar    1  UNL1        0.1079
     23 N          13.9374   44.4975    5.5365 N.ar    1  UNL1       -0.2224
     24 S          15.3052   42.9861    6.9885 S.2     1  UNL1       -0.0508
@<TRIPOS>BOND
     1     1     7   ar
     2     8     1    1
     3     8     9    1
     4     9    10    1
     5    10    11    1
     6    11    13    1
     7    14    13    1
     8    14    15    1
     9    15    16    1
    10    12    13    1
    11    12     8    1
    12     2     6   ar
    13     3     2    1
    14     4     5   ar
    15     5    18    1
    16    20    24   ar
    17    21    24   ar
    18    22    23   ar
    19    18    20    1
    20     1     6   ar
    21     2     4   ar
    22     5     7   ar
    23    20    23   ar
    24    21    22   ar
    25    18    19    1
    26    16    17    1
@<TRIPOS>MOLECULE
MolPort-047-015-566 MCULE-8578729561 PubChem-155985313
 24 26 0 0 0
SMALL
GASTEIGER

@<TRIPOS>ATOM
      1 C          12.0933   40.1889    8.1028 C.ar    1  UNL1        0.1411
      2 C          13.3585   39.4939    9.9746 C.ar    1  UNL1        0.0635
      3 C          13.4636   38.7069   11.2306 C.3     1  UNL1        0.0522
      4 C          14.4413   40.2522    9.5349 C.ar    1  UNL1        0.0492
      5 C          14.3127   40.9829    8.3487 C.ar    1  UNL1        0.1361
      6 N          12.2073   39.4745    9.2554 N.ar    1  UNL1       -0.2349
      7 N          13.1411   40.9335    7.6611 N.ar    1  UNL1       -0.2159
      8 C          10.8251   40.1629    7.3171 C.3     1  UNL1        0.0746
      9 C           9.8817   39.0811    7.8469 C.3     1  UNL1        0.0104
     10 C           8.6267   38.9699    6.9772 C.3     1  UNL1        0.0178
     11 C           8.9302   39.1484    5.4836 C.3     1  UNL1        0.0722
     12 C          11.1200   40.0043    5.8139 C.3     1  UNL1        0.0797
     13 N          10.3474   38.9183    5.2052 N.3     1  UNL1       -0.2702
     14 C          10.5264   39.0344    3.7683 C.3     1  UNL1        0.1042
     15 C           9.4160   38.2921    3.0504 C.3     1  UNL1        0.1544
     16 O           9.6416   36.9197    3.1396 O.3     1  UNL1       -0.3805
     17 H          10.4933   36.7046    2.7280 H       1  UNL1        0.2105
     18 N          15.3848   41.7849    7.8359 N.pl3   1  UNL1       -0.2781
     19 H          16.2993   41.4912    8.0520 H       1  UNL1        0.1555
     20 C          15.2602   42.9702    7.0410 C.ar    1  UNL1        0.1646
     21 C          15.5383   45.1371    5.9076 C.ar    1  UNL1        0.0588
     22 C          14.3728   44.4363    5.5937 C.ar    1  UNL1        0.1079
     23 N          14.2231   43.2389    6.2227 N.ar    1  UNL1       -0.2224
     24 S          16.3940   44.1989    7.0158 S.2     1  UNL1       -0.0508
@<TRIPOS>BOND
     1     1     7   ar
     2     8     1    1
     3     8     9    1
     4     9    10    1
     5    10    11    1
     6    11    13    1
     7    14    13    1
     8    14    15    1
     9    15    16    1
    10    12    13    1
    11    12     8    1
    12     2     6   ar
    13     3     2    1
    14     4     5   ar
    15     5    18    1
    16    20    24   ar
    17    21    24   ar
    18    22    23   ar
    19    18    20    1
    20     1     6   ar
    21     2     4   ar
    22     5     7   ar
    23    20    23   ar
    24    21    22   ar
    25    18    19    1
    26    16    17    1
@<TRIPOS>MOLECULE
MolPort-047-015-566 MCULE-8578729561 PubChem-155985313
 24 26 0 0 0
SMALL
GASTEIGER

@<TRIPOS>ATOM
      1 C          11.3054   41.6035    9.8433 C.ar    1  UNL1        0.1411
      2 C          13.3118   40.3661   10.0188 C.ar    1  UNL1        0.0635
      3 C          14.1877   39.4462   10.7898 C.3     1  UNL1        0.0522
      4 C          13.7131   40.8231    8.7654 C.ar    1  UNL1        0.0492
      5 C          12.8674   41.6885    8.0630 C.ar    1  UNL1        0.1361
      6 N          12.1203   40.7617   10.5354 N.ar    1  UNL1       -0.2349
      7 N          11.6834   42.0579    8.6193 N.ar    1  UNL1       -0.2159
      8 C           9.9971   42.0341   10.4170 C.3     1  UNL1        0.0746
      9 C           9.5987   41.1370   11.5907 C.3     1  UNL1        0.0104
     10 C           8.2060   41.4989   12.1132 C.3     1  UNL1        0.0178
     11 C           7.2344   41.8708   10.9852 C.3     1  UNL1        0.0722
     12 C           8.9151   42.0890    9.3224 C.3     1  UNL1        0.0797
     13 N           7.7031   41.3568    9.6986 N.3     1  UNL1       -0.2702
     14 C           6.6919   41.6893    8.7102 C.3     1  UNL1        0.1042
     15 C           5.3121   41.5804    9.3296 C.3     1  UNL1        0.1544
     16 O           4.4818   40.8434    8.4871 O.3     1  UNL1       -0.3805
     17 H           4.4163   41.2883    7.6277 H       1  UNL1        0.2105
     18 N          13.2149   42.1984    6.7689 N.pl3   1  UNL1       -0.2781
     19 H          12.7528   41.7983    5.9971 H       1  UNL1        0.1555
     20 C          14.1663   43.2312    6.4848 C.ar    1  UNL1        0.1646
     21 C          16.1366   44.6970    6.3213 C.ar    1  UNL1        0.0588
     22 C          15.0082   45.1208    5.6176 C.ar    1  UNL1        0.1079
     23 N          13.9213   44.3074    5.7109 N.ar    1  UNL1       -0.2224
     24 S          15.7293   43.2475    7.0788 S.2     1  UNL1       -0.0508
@<TRIPOS>BOND
     1     1     7   ar
     2     8     1    1
     3     8     9    1
     4     9    10    1
     5    10    11    1
     6    11    13    1
     7    14    13    1
     8    14    15    1
     9    15    16    1
    10    12    13    1
    11    12     8    1
    12     2     6   ar
    13     3     2    1
    14     4     5   ar
    15     5    18    1
    16    20    24   ar
    17    21    24   ar
    18    22    23   ar
    19    18    20    1
    20     1     6   ar
    21     2     4   ar
    22     5     7   ar
    23    20    23   ar
    24    21    22   ar
    25    18    19    1
    26    16    17    1
@<TRIPOS>MOLECULE
MolPort-047-015-566 MCULE-8578729561 PubChem-155985313
 24 26 0 0 0
SMALL
GASTEIGER

@<TRIPOS>ATOM
      1 C          12.4958   39.6635    7.6703 C.ar    1  UNL1        0.1411
      2 C          11.3325   40.6343    5.8559 C.ar    1  UNL1        0.0635
      3 C          10.3196   40.5218    4.7746 C.3     1  UNL1        0.0522
      4 C          12.0369   41.8236    6.0297 C.ar    1  UNL1        0.0492
      5 C          12.9844   41.8997    7.0563 C.ar    1  UNL1        0.1361
      6 N          11.5720   39.5783    6.6747 N.ar    1  UNL1       -0.2349
      7 N          13.1910   40.8172    7.8521 N.ar    1  UNL1       -0.2159
      8 C          12.7538   38.4989    8.5666 C.3     1  UNL1        0.0746
      9 C          11.4450   37.9667    9.1538 C.3     1  UNL1        0.0104
     10 C          11.7088   36.8455   10.1622 C.3     1  UNL1        0.0178
     11 C          12.9568   37.1062   11.0163 C.3     1  UNL1        0.0722
     12 C          13.7817   38.8663    9.6530 C.3     1  UNL1        0.0797
     13 N          13.3171   38.5236   10.9996 N.3     1  UNL1       -0.2702
     14 C          14.4553   38.6870   11.8872 C.3     1  UNL1        0.1042
     15 C          15.6890   38.0668   11.2605 C.3     1  UNL1        0.1544
     16 O          16.2412   37.1393   12.1421 O.3     1  UNL1       -0.3805
     17 H          16.4871   37.5847   12.9679 H       1  UNL1        0.2105
     18 N          13.7462   43.0908    7.2939 N.pl3   1  UNL1       -0.2781
     19 H          13.2597   43.8593    7.6707 H       1  UNL1        0.1555
     20 C          15.1437   43.2762    7.0385 C.ar    1  UNL1        0.1646
     21 C          17.3607   43.9541    6.2124 C.ar    1  UNL1        0.0588
     22 C          17.3620   43.0140    7.2439 C.ar    1  UNL1        0.1079
     23 N          16.1341   42.6421    7.6976 N.ar    1  UNL1       -0.2224
     24 S          15.7490   44.3149    5.8764 S.2     1  UNL1       -0.0508
@<TRIPOS>BOND
     1     1     7   ar
     2     8     1    1
     3     8     9    1
     4     9    10    1
     5    10    11    1
     6    11    13    1
     7    14    13    1
     8    14    15    1
     9    15    16    1
    10    12    13    1
    11    12     8    1
    12     2     6   ar
    13     3     2    1
    14     4     5   ar
    15     5    18    1
    16    20    24   ar
    17    21    24   ar
    18    22    23   ar
    19    18    20    1
    20     1     6   ar
    21     2     4   ar
    22     5     7   ar
    23    20    23   ar
    24    21    22   ar
    25    18    19    1
    26    16    17    1
@<TRIPOS>MOLECULE
MolPort-047-015-566 MCULE-8578729561 PubChem-155985313
 24 26 0 0 0
SMALL
GASTEIGER

@<TRIPOS>ATOM
      1 C           9.1183   41.8748    7.8922 C.ar    1  UNL1        0.1411
      2 C          10.6837   40.6153    9.1375 C.ar    1  UNL1        0.0635
      3 C          11.0073   39.7903   10.3302 C.3     1  UNL1        0.0522
      4 C          11.6642   40.8737    8.1822 C.ar    1  UNL1        0.0492
      5 C          11.3300   41.6537    7.0698 C.ar    1  UNL1        0.1361
      6 N           9.4326   41.1175    8.9783 N.ar    1  UNL1       -0.2349
      7 N          10.0643   42.1355    6.9517 N.ar    1  UNL1       -0.2159
      8 C           7.7411   42.4235    7.7235 C.3     1  UNL1        0.0746
      9 C           7.6365   43.8221    8.3348 C.3     1  UNL1        0.0104
     10 C           6.1999   44.3470    8.2680 C.3     1  UNL1        0.0178
     11 C           5.1610   43.2477    8.5268 C.3     1  UNL1        0.0722
     12 C           6.6941   41.4496    8.2954 C.3     1  UNL1        0.0797
     13 N           5.7642   42.1079    9.2168 N.3     1  UNL1       -0.2702
     14 C           4.6997   41.1565    9.4845 C.3     1  UNL1        0.1042
     15 C           3.3562   41.8565    9.4188 C.3     1  UNL1        0.1544
     16 O           2.4559   41.0674    8.7052 O.3     1  UNL1       -0.3805
     17 H           2.7916   40.9265    7.8061 H       1  UNL1        0.2105
     18 N          12.2871   41.9601    6.0474 N.pl3   1  UNL1       -0.2781
     19 H          12.1595   41.5205    5.1758 H       1  UNL1        0.1555
     20 C          13.4106   42.8413    6.1653 C.ar    1  UNL1        0.1646
     21 C          15.5426   43.9500    6.6968 C.ar    1  UNL1        0.0588
     22 C          14.6866   44.6596    5.8532 C.ar    1  UNL1        0.1079
     23 N          13.5090   44.0429    5.5621 N.ar    1  UNL1       -0.2224
     24 S          14.7707   42.5006    7.0763 S.2     1  UNL1       -0.0508
@<TRIPOS>BOND
     1     1     7   ar
     2     8     1    1
     3     8     9    1
     4     9    10    1
     5    10    11    1
     6    11    13    1
     7    14    13    1
     8    14    15    1
     9    15    16    1
    10    12    13    1
    11    12     8    1
    12     2     6   ar
    13     3     2    1
    14     4     5   ar
    15     5    18    1
    16    20    24   ar
    17    21    24   ar
    18    22    23   ar
    19    18    20    1
    20     1     6   ar
    21     2     4   ar
    22     5     7   ar
    23    20    23   ar
    24    21    22   ar
    25    18    19    1
    26    16    17    1
@<TRIPOS>MOLECULE
MolPort-047-015-566 MCULE-8578729561 PubChem-155985313
 24 26 0 0 0
SMALL
GASTEIGER

@<TRIPOS>ATOM
      1 C          14.6842   41.0345    8.8916 C.ar    1  UNL1        0.1411
      2 C          13.9788   39.7013   10.7116 C.ar    1  UNL1        0.0635
      3 C          14.3123   38.8233   11.8631 C.3     1  UNL1        0.0522
      4 C          12.6476   39.9839   10.4136 C.ar    1  UNL1        0.0492
      5 C          12.3644   40.8137    9.3233 C.ar    1  UNL1        0.1361
      6 N          14.9711   40.2283    9.9497 N.ar    1  UNL1       -0.2349
      7 N          13.3903   41.3192    8.5884 N.ar    1  UNL1       -0.2159
      8 C          15.7799   41.6104    8.0585 C.3     1  UNL1        0.0746
      9 C          16.9401   42.0797    8.9385 C.3     1  UNL1        0.0104
     10 C          18.0190   42.7747    8.1039 C.3     1  UNL1        0.0178
     11 C          17.4274   43.6366    6.9805 C.3     1  UNL1        0.0722
     12 C          15.2399   42.7289    7.1478 C.3     1  UNL1        0.0797
     13 N          16.0269   43.9605    7.2502 N.3     1  UNL1       -0.2702
     14 C          15.5752   44.8335    6.1806 C.3     1  UNL1        0.1042
     15 C          14.8176   44.0268    5.1440 C.3     1  UNL1        0.1544
     16 O          13.4825   44.4265    5.1294 O.3     1  UNL1       -0.3805
     17 H          13.0910   44.2779    6.0043 H       1  UNL1        0.2105
     18 N          11.0189   41.1475    8.9578 N.pl3   1  UNL1       -0.2781
     19 H          10.5898   41.8736    9.4656 H       1  UNL1        0.1555
     20 C          10.2354   40.5315    7.9287 C.ar    1  UNL1        0.1646
     21 C           8.9492   39.9686    5.9072 C.ar    1  UNL1        0.0588
     22 C           9.0543   38.9529    6.8587 C.ar    1  UNL1        0.1079
     23 N           9.7662   39.2686    7.9747 N.ar    1  UNL1       -0.2224
     24 S           9.7882   41.2993    6.5122 S.2     1  UNL1       -0.0508
@<TRIPOS>BOND
     1     1     7   ar
     2     8     1    1
     3     8     9    1
     4     9    10    1
     5    10    11    1
     6    11    13    1
     7    14    13    1
     8    14    15    1
     9    15    16    1
    10    12    13    1
    11    12     8    1
    12     2     6   ar
    13     3     2    1
    14     4     5   ar
    15     5    18    1
    16    20    24   ar
    17    21    24   ar
    18    22    23   ar
    19    18    20    1
    20     1     6   ar
    21     2     4   ar
    22     5     7   ar
    23    20    23   ar
    24    21    22   ar
    25    18    19    1
    26    16    17    1
@<TRIPOS>MOLECULE
MolPort-047-015-566 MCULE-8578729561 PubChem-155985313
 24 26 0 0 0
SMALL
GASTEIGER

@<TRIPOS>ATOM
      1 C           9.4052   41.5168    7.4167 C.ar    1  UNL1        0.1411
      2 C          10.4869   40.7494    5.4601 C.ar    1  UNL1        0.0635
      3 C          10.4239   40.0509    4.1501 C.3     1  UNL1        0.0522
      4 C          11.6965   41.2705    5.9143 C.ar    1  UNL1        0.0492
      5 C          11.7250   41.9229    7.1516 C.ar    1  UNL1        0.1361
      6 N           9.3661   40.8800    6.2147 N.ar    1  UNL1       -0.2349
      7 N          10.5779   42.0303    7.8732 N.ar    1  UNL1       -0.2159
      8 C           8.1693   41.6569    8.2409 C.3     1  UNL1        0.0746
      9 C           7.0992   40.6625    7.7861 C.3     1  UNL1        0.0104
     10 C           5.7892   40.8750    8.5492 C.3     1  UNL1        0.0178
     11 C           5.4906   42.3590    8.8005 C.3     1  UNL1        0.0722
     12 C           7.6672   43.1127    8.2247 C.3     1  UNL1        0.0797
     13 N           6.2462   43.2091    7.8809 N.3     1  UNL1       -0.2702
     14 C           5.8471   44.5816    8.1399 C.3     1  UNL1        0.1042
     15 C           4.5252   44.8704    7.4555 C.3     1  UNL1        0.1544
     16 O           3.5700   45.2062    8.4132 O.3     1  UNL1       -0.3805
     17 H           3.4592   44.4676    9.0322 H       1  UNL1        0.2105
     18 N          12.9333   42.4835    7.6820 N.pl3   1  UNL1       -0.2781
     19 H          13.0880   42.3679    8.6473 H       1  UNL1        0.1555
     20 C          13.9383   43.1949    6.9496 C.ar    1  UNL1        0.1646
     21 C          16.0164   44.1110    6.0012 C.ar    1  UNL1        0.0588
     22 C          14.8322   44.6323    5.4778 C.ar    1  UNL1        0.1079
     23 N          13.6858   44.1230    6.0051 N.ar    1  UNL1       -0.2224
     24 S          15.5814   42.9724    7.1652 S.2     1  UNL1       -0.0508
@<TRIPOS>BOND
     1     1     7   ar
     2     8     1    1
     3     8     9    1
     4     9    10    1
     5    10    11    1
     6    11    13    1
     7    14    13    1
     8    14    15    1
     9    15    16    1
    10    12    13    1
    11    12     8    1
    12     2     6   ar
    13     3     2    1
    14     4     5   ar
    15     5    18    1
    16    20    24   ar
    17    21    24   ar
    18    22    23   ar
    19    18    20    1
    20     1     6   ar
    21     2     4   ar
    22     5     7   ar
    23    20    23   ar
    24    21    22   ar
    25    18    19    1
    26    16    17    1
