@<TRIPOS>MOLECULE
MolPort-005-163-095 15077845 CHEMBL1575864 CSSS00159571147 PubChem-24819214 ZINC000015077845
 31 34 0 0 0
SMALL
GASTEIGER

@<TRIPOS>ATOM
      1 C          11.6814   41.3268    6.3791 C.ar    1  UNL1        0.1328
      2 C          11.2998   40.7582    5.1783 C.ar    1  UNL1        0.0565
      3 C           9.9185   40.6515    5.2975 C.ar    1  UNL1        0.1230
      4 N           9.5266   41.1305    6.4972 N.ar    1  UNL1       -0.1666
      5 N          10.6025   41.5418    7.1440 N.ar    1  UNL1       -0.2394
      6 C          10.6061   42.1021    8.4932 C.3     1  UNL1        0.1093
      7 C           9.6653   41.3196    9.4235 C.3     1  UNL1        0.0418
      8 C          10.4105   40.3435   10.3366 C.3     1  UNL1        0.0744
      9 C          12.5961   40.9155    9.6211 C.3     1  UNL1        0.0744
     10 C          12.0372   42.2258    9.0357 C.3     1  UNL1        0.0418
     11 N          11.6009   39.8409    9.6626 N.3     1  UNL1       -0.2688
     12 C          12.1451   38.7764   10.4905 C.3     1  UNL1        0.0989
     13 C          13.5762   38.5342   10.1439 C.2     1  UNL1       -0.0088
     14 C          14.5115   38.5265   11.0894 C.2     1  UNL1       -0.0032
     15 C          15.9316   38.2856   10.8012 C.ar    1  UNL1       -0.0003
     16 C          16.9433   39.0993   11.3370 C.ar    1  UNL1       -0.0000
     17 C          18.2848   38.8422   11.0394 C.ar    1  UNL1       -0.0000
     18 C          18.6228   37.7726   10.2055 C.ar    1  UNL1       -0.0000
     19 C          17.6195   36.9603    9.6694 C.ar    1  UNL1       -0.0000
     20 C          16.2776   37.2172    9.9670 C.ar    1  UNL1       -0.0000
     21 C          13.7366   42.8376    6.4262 C.2     1  UNL1        0.2506
     22 O          13.2003   43.7117    5.6919 O.2     1  UNL1       -0.2698
     23 N          13.0178   41.6497    6.7854 N.am    1  UNL1       -0.2660
     24 H          13.4823   40.9997    7.3607 H       1  UNL1        0.1566
     25 F          17.4710   41.5308    9.2838 F       1  UNL1       -0.2042
     26 C          16.9561   42.3672    8.3511 C.ar    1  UNL1        0.1403
     27 C          17.7285   43.4210    7.8551 C.ar    1  UNL1        0.0296
     28 C          17.1971   44.2840    6.8930 C.ar    1  UNL1        0.0025
     29 C          15.8932   44.0930    6.4266 C.ar    1  UNL1        0.0047
     30 C          15.1108   43.0378    6.9187 C.ar    1  UNL1        0.0559
     31 C          15.6522   42.1763    7.8847 C.ar    1  UNL1        0.0342
@<TRIPOS>BOND
     1    26    25    1
     2    27    28   ar
     3    29    30   ar
     4    30    21    1
     5    31    26   ar
     6    21    23   am
     7     2     3   ar
     8     6     5    1
     9     6     7    1
    10     7     8    1
    11     8    11    1
    12    12    11    1
    13    12    13    1
    14    14    15    1
    15    16    17   ar
    16    18    19   ar
    17    20    15   ar
    18     9    11    1
    19     9    10    1
    20    10     6    1
    21    23     1    1
    22     5     4   ar
    23     5     1   ar
    24    26    27   ar
    25    28    29   ar
    26    30    31   ar
    27    21    22    2
    28     1     2   ar
    29     3     4   ar
    30    13    14    2
    31    15    16   ar
    32    17    18   ar
    33    19    20   ar
    34    23    24    1
@<TRIPOS>MOLECULE
MolPort-005-163-095 15077845 CHEMBL1575864 CSSS00159571147 PubChem-24819214 ZINC000015077845
 31 34 0 0 0
SMALL
GASTEIGER

@<TRIPOS>ATOM
      1 C           8.7743   41.6360   11.1198 C.ar    1  UNL1        0.1328
      2 C           9.0920   41.6973   12.4638 C.ar    1  UNL1        0.0565
      3 C          10.3502   41.1082   12.5240 C.ar    1  UNL1        0.1230
      4 N          10.7353   40.7293   11.2870 N.ar    1  UNL1       -0.1666
      5 N           9.7748   41.0577   10.4416 N.ar    1  UNL1       -0.2394
      6 C           9.7950   40.7909    9.0055 C.3     1  UNL1        0.1093
      7 C          10.9397   41.5493    8.3144 C.3     1  UNL1        0.0418
      8 C          12.1480   40.6584    8.0181 C.3     1  UNL1        0.0744
      9 C          11.2024   38.6401    8.8232 C.3     1  UNL1        0.0744
     10 C           9.8057   39.2813    8.7246 C.3     1  UNL1        0.0418
     11 N          12.2665   39.6242    9.0381 N.3     1  UNL1       -0.2688
     12 C          13.5348   38.9479    8.8178 C.3     1  UNL1        0.0989
     13 C          14.5169   39.8838    8.1959 C.2     1  UNL1       -0.0088
     14 C          14.8151   41.0409    8.7798 C.2     1  UNL1       -0.0032
     15 C          15.7798   41.9925    8.2126 C.ar    1  UNL1       -0.0003
     16 C          17.0944   42.0902    8.6972 C.ar    1  UNL1       -0.0000
     17 C          17.9853   43.0092    8.1350 C.ar    1  UNL1       -0.0000
     18 C          17.5683   43.8352    7.0873 C.ar    1  UNL1       -0.0000
     19 C          16.2608   43.7420    6.6019 C.ar    1  UNL1       -0.0000
     20 C          15.3695   42.8228    7.1640 C.ar    1  UNL1       -0.0000
     21 C           7.4542   43.2530    9.6530 C.2     1  UNL1        0.2506
     22 O           8.4695   43.9514    9.3841 O.2     1  UNL1       -0.2698
     23 N           7.5671   42.1047   10.5048 N.am    1  UNL1       -0.2660
     24 H           6.7443   41.5941   10.6826 H       1  UNL1        0.1566
     25 F           2.6384   42.5613    9.2686 F       1  UNL1       -0.2042
     26 C           3.7468   43.2543    8.9139 C.ar    1  UNL1        0.1403
     27 C           3.6475   44.3172    8.0120 C.ar    1  UNL1        0.0296
     28 C           4.7911   45.0319    7.6460 C.ar    1  UNL1        0.0025
     29 C           6.0343   44.6839    8.1823 C.ar    1  UNL1        0.0047
     30 C           6.1433   43.6187    9.0884 C.ar    1  UNL1        0.0559
     31 C           4.9899   42.9063    9.4502 C.ar    1  UNL1        0.0342
@<TRIPOS>BOND
     1    26    25    1
     2    27    28   ar
     3    29    30   ar
     4    30    21    1
     5    31    26   ar
     6    21    23   am
     7     2     3   ar
     8     6     5    1
     9     6     7    1
    10     7     8    1
    11     8    11    1
    12    12    11    1
    13    12    13    1
    14    14    15    1
    15    16    17   ar
    16    18    19   ar
    17    20    15   ar
    18     9    11    1
    19     9    10    1
    20    10     6    1
    21    23     1    1
    22     5     4   ar
    23     5     1   ar
    24    26    27   ar
    25    28    29   ar
    26    30    31   ar
    27    21    22    2
    28     1     2   ar
    29     3     4   ar
    30    13    14    2
    31    15    16   ar
    32    17    18   ar
    33    19    20   ar
    34    23    24    1
@<TRIPOS>MOLECULE
MolPort-005-163-095 15077845 CHEMBL1575864 CSSS00159571147 PubChem-24819214 ZINC000015077845
 31 34 0 0 0
SMALL
GASTEIGER

@<TRIPOS>ATOM
      1 C           9.0650   41.2738   10.2513 C.ar    1  UNL1        0.1328
      2 C           9.7493   41.5413   11.4223 C.ar    1  UNL1        0.0565
      3 C          10.9294   40.8202   11.2770 C.ar    1  UNL1        0.1230
      4 N          10.9256   40.1745   10.0915 N.ar    1  UNL1       -0.1666
      5 N           9.7927   40.4595    9.4748 N.ar    1  UNL1       -0.2394
      6 C           9.3916   39.9322    8.1728 C.3     1  UNL1        0.1093
      7 C           8.8512   41.0473    7.2631 C.3     1  UNL1        0.0418
      8 C           9.8760   41.5180    6.2286 C.3     1  UNL1        0.0744
      9 C          11.5813   39.9805    6.8152 C.3     1  UNL1        0.0744
     10 C          10.5262   39.1187    7.5334 C.3     1  UNL1        0.0418
     11 N          11.2230   41.4006    6.7727 N.3     1  UNL1       -0.2688
     12 C          12.1232   42.0481    5.8319 C.3     1  UNL1        0.0989
     13 C          13.5190   42.0318    6.3596 C.2     1  UNL1       -0.0088
     14 C          14.1847   43.1669    6.5530 C.2     1  UNL1       -0.0032
     15 C          15.5565   43.2049    7.0770 C.ar    1  UNL1       -0.0003
     16 C          16.4759   44.1863    6.6717 C.ar    1  UNL1       -0.0000
     17 C          17.7745   44.1907    7.1894 C.ar    1  UNL1       -0.0000
     18 C          18.1617   43.2157    8.1131 C.ar    1  UNL1       -0.0000
     19 C          17.2504   42.2366    8.5190 C.ar    1  UNL1       -0.0000
     20 C          15.9513   42.2320    8.0015 C.ar    1  UNL1       -0.0000
     21 C           7.4906   43.0776    9.3702 C.2     1  UNL1        0.2506
     22 O           8.4228   43.9102    9.2007 O.2     1  UNL1       -0.2698
     23 N           7.7701   41.7689    9.8860 N.am    1  UNL1       -0.2660
     24 H           7.0067   41.1576    9.9990 H       1  UNL1        0.1566
     25 F           4.2924   45.9362    7.0425 F       1  UNL1       -0.2042
     26 C           4.5323   44.8887    7.8670 C.ar    1  UNL1        0.1403
     27 C           3.4653   44.1616    8.4016 C.ar    1  UNL1        0.0296
     28 C           3.7130   43.0811    9.2524 C.ar    1  UNL1        0.0025
     29 C           5.0279   42.7274    9.5685 C.ar    1  UNL1        0.0047
     30 C           6.1051   43.4515    9.0363 C.ar    1  UNL1        0.0559
     31 C           5.8473   44.5351    8.1831 C.ar    1  UNL1        0.0342
@<TRIPOS>BOND
     1    26    25    1
     2    27    28   ar
     3    29    30   ar
     4    30    21    1
     5    31    26   ar
     6    21    23   am
     7     2     3   ar
     8     6     5    1
     9     6     7    1
    10     7     8    1
    11     8    11    1
    12    12    11    1
    13    12    13    1
    14    14    15    1
    15    16    17   ar
    16    18    19   ar
    17    20    15   ar
    18     9    11    1
    19     9    10    1
    20    10     6    1
    21    23     1    1
    22     5     4   ar
    23     5     1   ar
    24    26    27   ar
    25    28    29   ar
    26    30    31   ar
    27    21    22    2
    28     1     2   ar
    29     3     4   ar
    30    13    14    2
    31    15    16   ar
    32    17    18   ar
    33    19    20   ar
    34    23    24    1
@<TRIPOS>MOLECULE
MolPort-005-163-095 15077845 CHEMBL1575864 CSSS00159571147 PubChem-24819214 ZINC000015077845
 31 34 0 0 0
SMALL
GASTEIGER

@<TRIPOS>ATOM
      1 C          13.6602   39.7420    9.7939 C.ar    1  UNL1        0.1328
      2 C          14.0561   39.3332   11.0537 C.ar    1  UNL1        0.0565
      3 C          13.2096   38.2640   11.3256 C.ar    1  UNL1        0.1230
      4 N          12.3742   38.0681   10.2835 N.ar    1  UNL1       -0.1666
      5 N          12.6583   38.9665    9.3577 N.ar    1  UNL1       -0.2394
      6 C          11.9577   39.1072    8.0835 C.3     1  UNL1        0.1093
      7 C          10.4502   38.8548    8.2463 C.3     1  UNL1        0.0418
      8 C           9.6341   40.1482    8.2981 C.3     1  UNL1        0.0744
      9 C          11.4519   41.6310    7.9623 C.3     1  UNL1        0.0744
     10 C          12.2833   40.4534    7.4203 C.3     1  UNL1        0.0418
     11 N          10.4208   41.2093    8.9140 N.3     1  UNL1       -0.2688
     12 C           9.5297   42.3400    9.1188 C.3     1  UNL1        0.0989
     13 C           8.1079   41.8877    9.0903 C.2     1  UNL1       -0.0088
     14 C           7.3527   41.9538   10.1830 C.2     1  UNL1       -0.0032
     15 C           5.9468   41.5287   10.2049 C.ar    1  UNL1       -0.0003
     16 C           5.1160   41.6631    9.0804 C.ar    1  UNL1       -0.0000
     17 C           3.7817   41.2500    9.1378 C.ar    1  UNL1       -0.0000
     18 C           3.2703   40.7014   10.3173 C.ar    1  UNL1       -0.0000
     19 C           4.0930   40.5661   11.4392 C.ar    1  UNL1       -0.0000
     20 C           5.4278   40.9792   11.3821 C.ar    1  UNL1       -0.0000
     21 C          15.6043   41.0619    8.8004 C.2     1  UNL1        0.2506
     22 O          16.4724   40.2791    9.2743 O.2     1  UNL1       -0.2698
     23 N          14.2091   40.8282    9.0361 N.am    1  UNL1       -0.2660
     24 H          13.5732   41.4692    8.6436 H       1  UNL1        0.1566
     25 F          18.8659   44.5225    7.7030 F       1  UNL1       -0.2042
     26 C          17.6661   43.9384    7.4713 C.ar    1  UNL1        0.1403
     27 C          16.8270   44.4382    6.4717 C.ar    1  UNL1        0.0296
     28 C          15.5890   43.8355    6.2330 C.ar    1  UNL1        0.0025
     29 C          15.1901   42.7328    6.9939 C.ar    1  UNL1        0.0047
     30 C          16.0260   42.2243    7.9992 C.ar    1  UNL1        0.0559
     31 C          17.2671   42.8357    8.2322 C.ar    1  UNL1        0.0342
@<TRIPOS>BOND
     1    26    25    1
     2    27    28   ar
     3    29    30   ar
     4    30    21    1
     5    31    26   ar
     6    21    23   am
     7     2     3   ar
     8     6     5    1
     9     6     7    1
    10     7     8    1
    11     8    11    1
    12    12    11    1
    13    12    13    1
    14    14    15    1
    15    16    17   ar
    16    18    19   ar
    17    20    15   ar
    18     9    11    1
    19     9    10    1
    20    10     6    1
    21    23     1    1
    22     5     4   ar
    23     5     1   ar
    24    26    27   ar
    25    28    29   ar
    26    30    31   ar
    27    21    22    2
    28     1     2   ar
    29     3     4   ar
    30    13    14    2
    31    15    16   ar
    32    17    18   ar
    33    19    20   ar
    34    23    24    1
@<TRIPOS>MOLECULE
MolPort-005-163-095 15077845 CHEMBL1575864 CSSS00159571147 PubChem-24819214 ZINC000015077845
 31 34 0 0 0
SMALL
GASTEIGER

@<TRIPOS>ATOM
      1 C          12.1493   41.2313    9.3889 C.ar    1  UNL1        0.1328
      2 C          10.7768   41.3179    9.2478 C.ar    1  UNL1        0.0565
      3 C          10.3052   40.2852   10.0508 C.ar    1  UNL1        0.1230
      4 N          11.3451   39.6407   10.6214 N.ar    1  UNL1       -0.1666
      5 N          12.4589   40.2248   10.2174 N.ar    1  UNL1       -0.2394
      6 C          13.8078   39.8051   10.5896 C.3     1  UNL1        0.1093
      7 C          13.7792   38.8261   11.7744 C.3     1  UNL1        0.0418
      8 C          13.9543   37.3681   11.3438 C.3     1  UNL1        0.0744
      9 C          14.2542   37.8005    9.0331 C.3     1  UNL1        0.0744
     10 C          14.5745   39.2683    9.3723 C.3     1  UNL1        0.0418
     11 N          13.3769   37.1667   10.0208 N.3     1  UNL1       -0.2688
     12 C          13.3912   35.7362    9.7601 C.3     1  UNL1        0.0989
     13 C          14.6775   35.3426    9.1140 C.2     1  UNL1       -0.0088
     14 C          14.9017   34.0799    8.7620 C.2     1  UNL1       -0.0032
     15 C          16.1472   33.6433    8.1170 C.ar    1  UNL1       -0.0003
     16 C          16.9009   32.5683    8.6159 C.ar    1  UNL1       -0.0000
     17 C          18.0830   32.1814    7.9778 C.ar    1  UNL1       -0.0000
     18 C          18.5187   32.8657    6.8395 C.ar    1  UNL1       -0.0000
     19 C          17.7723   33.9366    6.3395 C.ar    1  UNL1       -0.0000
     20 C          16.5897   34.3237    6.9775 C.ar    1  UNL1       -0.0000
     21 C          13.4595   42.0628    7.3639 C.2     1  UNL1        0.2506
     22 O          12.8743   41.2752    6.5713 O.2     1  UNL1       -0.2698
     23 N          13.1277   42.0689    8.7592 N.am    1  UNL1       -0.2660
     24 H          13.6138   42.7030    9.3342 H       1  UNL1        0.1566
     25 F          18.0748   43.6447    7.2437 F       1  UNL1       -0.2042
     26 C          16.7958   43.7524    6.8111 C.ar    1  UNL1        0.1403
     27 C          16.4536   44.7367    5.8799 C.ar    1  UNL1        0.0296
     28 C          15.1340   44.8478    5.4340 C.ar    1  UNL1        0.0025
     29 C          14.1564   43.9742    5.9190 C.ar    1  UNL1        0.0047
     30 C          14.4909   42.9830    6.8536 C.ar    1  UNL1        0.0559
     31 C          15.8182   42.8788    7.2961 C.ar    1  UNL1        0.0342
@<TRIPOS>BOND
     1    26    25    1
     2    27    28   ar
     3    29    30   ar
     4    30    21    1
     5    31    26   ar
     6    21    23   am
     7     2     3   ar
     8     6     5    1
     9     6     7    1
    10     7     8    1
    11     8    11    1
    12    12    11    1
    13    12    13    1
    14    14    15    1
    15    16    17   ar
    16    18    19   ar
    17    20    15   ar
    18     9    11    1
    19     9    10    1
    20    10     6    1
    21    23     1    1
    22     5     4   ar
    23     5     1   ar
    24    26    27   ar
    25    28    29   ar
    26    30    31   ar
    27    21    22    2
    28     1     2   ar
    29     3     4   ar
    30    13    14    2
    31    15    16   ar
    32    17    18   ar
    33    19    20   ar
    34    23    24    1
@<TRIPOS>MOLECULE
MolPort-005-163-095 15077845 CHEMBL1575864 CSSS00159571147 PubChem-24819214 ZINC000015077845
 31 34 0 0 0
SMALL
GASTEIGER

@<TRIPOS>ATOM
      1 C          11.8809   39.7104    7.8664 C.ar    1  UNL1        0.1328
      2 C          11.0882   39.3156    6.8048 C.ar    1  UNL1        0.0565
      3 C          10.1774   38.4432    7.3906 C.ar    1  UNL1        0.1230
      4 N          10.4304   38.3408    8.7126 N.ar    1  UNL1       -0.1666
      5 N          11.4625   39.1165    8.9923 N.ar    1  UNL1       -0.2394
      6 C          12.0667   39.2631   10.3142 C.3     1  UNL1        0.1093
      7 C          12.8201   37.9881   10.7265 C.3     1  UNL1        0.0418
      8 C          14.3344   38.1077   10.5413 C.3     1  UNL1        0.0744
      9 C          14.3421   40.3605    9.8061 C.3     1  UNL1        0.0744
     10 C          12.9274   40.5324   10.3901 C.3     1  UNL1        0.0418
     11 N          14.6308   38.9793    9.4114 N.3     1  UNL1       -0.2688
     12 C          16.0608   38.8881    9.1632 C.3     1  UNL1        0.0989
     13 C          16.5819   37.5696    9.6291 C.2     1  UNL1       -0.0088
     14 C          17.8831   37.2989    9.5811 C.2     1  UNL1       -0.0032
     15 C          18.4464   36.0201   10.0342 C.ar    1  UNL1       -0.0003
     16 C          18.3364   34.8498    9.2654 C.ar    1  UNL1       -0.0000
     17 C          18.8825   33.6493    9.7290 C.ar    1  UNL1       -0.0000
     18 C          19.5403   33.6110   10.9617 C.ar    1  UNL1       -0.0000
     19 C          19.6519   34.7730   11.7306 C.ar    1  UNL1       -0.0000
     20 C          19.1058   35.9740   11.2672 C.ar    1  UNL1       -0.0000
     21 C          13.1075   41.7487    6.9448 C.2     1  UNL1        0.2506
     22 O          12.1813   42.0304    6.1361 O.2     1  UNL1       -0.2698
     23 N          12.9936   40.6127    7.8128 N.am    1  UNL1       -0.2660
     24 H          13.7445   40.4375    8.4249 H       1  UNL1        0.1566
     25 F          17.6081   42.6445    8.6061 F       1  UNL1       -0.2042
     26 C          16.5549   43.0159    7.8397 C.ar    1  UNL1        0.1403
     27 C          16.6126   44.1996    7.0990 C.ar    1  UNL1        0.0296
     28 C          15.5258   44.5827    6.3086 C.ar    1  UNL1        0.0025
     29 C          14.3812   43.7818    6.2586 C.ar    1  UNL1        0.0047
     30 C          14.3145   42.5920    6.9985 C.ar    1  UNL1        0.0559
     31 C          15.4102   42.2151    7.7897 C.ar    1  UNL1        0.0342
@<TRIPOS>BOND
     1    26    25    1
     2    27    28   ar
     3    29    30   ar
     4    30    21    1
     5    31    26   ar
     6    21    23   am
     7     2     3   ar
     8     6     5    1
     9     6     7    1
    10     7     8    1
    11     8    11    1
    12    12    11    1
    13    12    13    1
    14    14    15    1
    15    16    17   ar
    16    18    19   ar
    17    20    15   ar
    18     9    11    1
    19     9    10    1
    20    10     6    1
    21    23     1    1
    22     5     4   ar
    23     5     1   ar
    24    26    27   ar
    25    28    29   ar
    26    30    31   ar
    27    21    22    2
    28     1     2   ar
    29     3     4   ar
    30    13    14    2
    31    15    16   ar
    32    17    18   ar
    33    19    20   ar
    34    23    24    1
@<TRIPOS>MOLECULE
MolPort-005-163-095 15077845 CHEMBL1575864 CSSS00159571147 PubChem-24819214 ZINC000015077845
 31 34 0 0 0
SMALL
GASTEIGER

@<TRIPOS>ATOM
      1 C           8.8563   41.3870   11.1686 C.ar    1  UNL1        0.1328
      2 C           9.2033   41.5444   12.4975 C.ar    1  UNL1        0.0565
      3 C          10.5347   41.1444   12.5317 C.ar    1  UNL1        0.1230
      4 N          10.9320   40.7775   11.2948 N.ar    1  UNL1       -0.1666
      5 N           9.9084   40.9325   10.4743 N.ar    1  UNL1       -0.2394
      6 C           9.9223   40.6166    9.0480 C.3     1  UNL1        0.1093
      7 C          10.9824   41.4453    8.3047 C.3     1  UNL1        0.0418
      8 C          12.2573   40.6515    8.0108 C.3     1  UNL1        0.0744
      9 C          11.5071   38.5897    8.9066 C.3     1  UNL1        0.0744
     10 C          10.0583   39.1044    8.8189 C.3     1  UNL1        0.0418
     11 N          12.4859   39.6689    9.0627 N.3     1  UNL1       -0.2688
     12 C          13.8034   39.0967    8.8360 C.3     1  UNL1        0.0989
     13 C          14.6863   40.0891    8.1557 C.2     1  UNL1       -0.0088
     14 C          15.0914   41.1849    8.7913 C.2     1  UNL1       -0.0032
     15 C          15.9661   42.1876    8.1689 C.ar    1  UNL1       -0.0003
     16 C          15.5281   42.9924    7.1045 C.ar    1  UNL1       -0.0000
     17 C          16.3887   43.9351    6.5345 C.ar    1  UNL1       -0.0000
     18 C          17.6903   44.0786    7.0235 C.ar    1  UNL1       -0.0000
     19 C          18.1310   43.2795    8.0823 C.ar    1  UNL1       -0.0000
     20 C          17.2703   42.3365    8.6527 C.ar    1  UNL1       -0.0000
     21 C           6.3072   41.2879   11.1426 C.2     1  UNL1        0.2506
     22 O           6.2477   40.6764   12.2443 O.2     1  UNL1       -0.2698
     23 N           7.5756   41.6541   10.5824 N.am    1  UNL1       -0.2660
     24 H           7.5659   42.1301    9.7207 H       1  UNL1        0.1566
     25 F           3.7007   44.3125    8.3361 F       1  UNL1       -0.2042
     26 C           3.7879   43.1512    9.0277 C.ar    1  UNL1        0.1403
     27 C           2.6997   42.2749    9.0621 C.ar    1  UNL1        0.0296
     28 C           2.7898   41.0770    9.7758 C.ar    1  UNL1        0.0025
     29 C           3.9682   40.7550   10.4553 C.ar    1  UNL1        0.0047
     30 C           5.0655   41.6284   10.4261 C.ar    1  UNL1        0.0559
     31 C           4.9663   42.8292    9.7072 C.ar    1  UNL1        0.0342
@<TRIPOS>BOND
     1    26    25    1
     2    27    28   ar
     3    29    30   ar
     4    30    21    1
     5    31    26   ar
     6    21    23   am
     7     2     3   ar
     8     6     5    1
     9     6     7    1
    10     7     8    1
    11     8    11    1
    12    12    11    1
    13    12    13    1
    14    14    15    1
    15    16    17   ar
    16    18    19   ar
    17    20    15   ar
    18     9    11    1
    19     9    10    1
    20    10     6    1
    21    23     1    1
    22     5     4   ar
    23     5     1   ar
    24    26    27   ar
    25    28    29   ar
    26    30    31   ar
    27    21    22    2
    28     1     2   ar
    29     3     4   ar
    30    13    14    2
    31    15    16   ar
    32    17    18   ar
    33    19    20   ar
    34    23    24    1
@<TRIPOS>MOLECULE
MolPort-005-163-095 15077845 CHEMBL1575864 CSSS00159571147 PubChem-24819214 ZINC000015077845
 31 34 0 0 0
SMALL
GASTEIGER

@<TRIPOS>ATOM
      1 C          12.2030   39.7286    8.2128 C.ar    1  UNL1        0.1328
      2 C          11.1170   39.6469    7.3612 C.ar    1  UNL1        0.0565
      3 C          10.3370   38.6460    7.9300 C.ar    1  UNL1        0.1230
      4 N          10.9383   38.1779    9.0443 N.ar    1  UNL1       -0.1666
      5 N          12.0670   38.8439    9.2098 N.ar    1  UNL1       -0.2394
      6 C          13.0248   38.6147   10.2889 C.3     1  UNL1        0.1093
      7 C          12.8482   37.2163   10.9023 C.3     1  UNL1        0.0418
      8 C          13.8898   36.2130   10.4021 C.3     1  UNL1        0.0744
      9 C          15.1079   37.7343    9.0538 C.3     1  UNL1        0.0744
     10 C          14.4598   38.9004    9.8233 C.3     1  UNL1        0.0418
     11 N          14.2708   36.5320    9.0319 N.3     1  UNL1       -0.2688
     12 C          15.0966   35.4362    8.5504 C.3     1  UNL1        0.0989
     13 C          15.7552   35.8130    7.2654 C.2     1  UNL1       -0.0088
     14 C          16.4351   34.9123    6.5617 C.2     1  UNL1       -0.0032
     15 C          17.0945   35.2308    5.2882 C.ar    1  UNL1       -0.0003
     16 C          18.2579   36.0156    5.2340 C.ar    1  UNL1       -0.0000
     17 C          18.8576   36.3011    4.0039 C.ar    1  UNL1       -0.0000
     18 C          18.2988   35.8053    2.8224 C.ar    1  UNL1       -0.0000
     19 C          17.1406   35.0242    2.8713 C.ar    1  UNL1       -0.0000
     20 C          16.5406   34.7384    4.1016 C.ar    1  UNL1       -0.0000
     21 C          13.4591   41.6575    7.1127 C.2     1  UNL1        0.2506
     22 O          12.5413   41.8725    6.2747 O.2     1  UNL1       -0.2698
     23 N          13.3266   40.6094    8.0826 N.am    1  UNL1       -0.2660
     24 H          14.0718   40.4839    8.7137 H       1  UNL1        0.1566
     25 F          17.9347   42.6927    8.7606 F       1  UNL1       -0.2042
     26 C          16.9031   42.9835    7.9325 C.ar    1  UNL1        0.1403
     27 C          16.9923   44.0723    7.0609 C.ar    1  UNL1        0.0296
     28 C          15.9277   44.3723    6.2068 C.ar    1  UNL1        0.0025
     29 C          14.7739   43.5833    6.2241 C.ar    1  UNL1        0.0047
     30 C          14.6758   42.4884    7.0955 C.ar    1  UNL1        0.0559
     31 C          15.7493   42.1945    7.9498 C.ar    1  UNL1        0.0342
@<TRIPOS>BOND
     1    26    25    1
     2    27    28   ar
     3    29    30   ar
     4    30    21    1
     5    31    26   ar
     6    21    23   am
     7     2     3   ar
     8     6     5    1
     9     6     7    1
    10     7     8    1
    11     8    11    1
    12    12    11    1
    13    12    13    1
    14    14    15    1
    15    16    17   ar
    16    18    19   ar
    17    20    15   ar
    18     9    11    1
    19     9    10    1
    20    10     6    1
    21    23     1    1
    22     5     4   ar
    23     5     1   ar
    24    26    27   ar
    25    28    29   ar
    26    30    31   ar
    27    21    22    2
    28     1     2   ar
    29     3     4   ar
    30    13    14    2
    31    15    16   ar
    32    17    18   ar
    33    19    20   ar
    34    23    24    1
@<TRIPOS>MOLECULE
MolPort-005-163-095 15077845 CHEMBL1575864 CSSS00159571147 PubChem-24819214 ZINC000015077845
 31 34 0 0 0
SMALL
GASTEIGER

@<TRIPOS>ATOM
      1 C          13.0071   40.9124    7.4158 C.ar    1  UNL1        0.1328
      2 C          14.0935   41.7646    7.3498 C.ar    1  UNL1        0.0565
      3 C          13.5481   42.9431    6.8525 C.ar    1  UNL1        0.1230
      4 N          12.2245   42.7797    6.6436 N.ar    1  UNL1       -0.1666
      5 N          11.9051   41.5463    6.9925 N.ar    1  UNL1       -0.2394
      6 C          10.5683   40.9660    6.8901 C.3     1  UNL1        0.1093
      7 C          10.3584   39.8628    7.9399 C.3     1  UNL1        0.0418
      8 C           9.5451   40.3383    9.1458 C.3     1  UNL1        0.0744
      9 C           9.1308   42.5309    8.3478 C.3     1  UNL1        0.0744
     10 C           9.4886   42.0571    6.9267 C.3     1  UNL1        0.0418
     11 N           9.8003   41.7518    9.3927 N.3     1  UNL1       -0.2688
     12 C           9.1669   42.0872   10.6580 C.3     1  UNL1        0.0989
     13 C           7.7009   42.2876   10.4635 C.2     1  UNL1       -0.0088
     14 C           6.8474   41.2864   10.6583 C.2     1  UNL1       -0.0032
     15 C           5.3959   41.4342   10.4876 C.ar    1  UNL1       -0.0003
     16 C           4.7561   41.1059    9.2811 C.ar    1  UNL1       -0.0000
     17 C           3.3727   41.2616    9.1531 C.ar    1  UNL1       -0.0000
     18 C           2.6217   41.7459   10.2280 C.ar    1  UNL1       -0.0000
     19 C           3.2541   42.0745   11.4305 C.ar    1  UNL1       -0.0000
     20 C           4.6378   41.9188   11.5588 C.ar    1  UNL1       -0.0000
     21 C          13.1729   39.1131    9.2168 C.2     1  UNL1        0.2506
     22 O          13.3198   39.9541   10.1454 O.2     1  UNL1       -0.2698
     23 N          13.0159   39.5492    7.8597 N.am    1  UNL1       -0.2660
     24 H          12.9045   38.8521    7.1734 H       1  UNL1        0.1566
     25 F          15.1816   34.6753    8.9183 F       1  UNL1       -0.2042
     26 C          14.1824   35.4730    9.3652 C.ar    1  UNL1        0.1403
     27 C          13.1405   34.9302   10.1221 C.ar    1  UNL1        0.0296
     28 C          12.1096   35.7533   10.5830 C.ar    1  UNL1        0.0025
     29 C          12.1206   37.1195   10.2870 C.ar    1  UNL1        0.0047
     30 C          13.1625   37.6729    9.5280 C.ar    1  UNL1        0.0559
     31 C          14.1934   36.8391    9.0692 C.ar    1  UNL1        0.0342
@<TRIPOS>BOND
     1    26    25    1
     2    27    28   ar
     3    29    30   ar
     4    30    21    1
     5    31    26   ar
     6    21    23   am
     7     2     3   ar
     8     6     5    1
     9     6     7    1
    10     7     8    1
    11     8    11    1
    12    12    11    1
    13    12    13    1
    14    14    15    1
    15    16    17   ar
    16    18    19   ar
    17    20    15   ar
    18     9    11    1
    19     9    10    1
    20    10     6    1
    21    23     1    1
    22     5     4   ar
    23     5     1   ar
    24    26    27   ar
    25    28    29   ar
    26    30    31   ar
    27    21    22    2
    28     1     2   ar
    29     3     4   ar
    30    13    14    2
    31    15    16   ar
    32    17    18   ar
    33    19    20   ar
    34    23    24    1
@<TRIPOS>MOLECULE
MolPort-005-163-095 15077845 CHEMBL1575864 CSSS00159571147 PubChem-24819214 ZINC000015077845
 31 34 0 0 0
SMALL
GASTEIGER

@<TRIPOS>ATOM
      1 C          10.5940   40.8561    5.8296 C.ar    1  UNL1        0.1328
      2 C          10.5513   39.6635    5.1317 C.ar    1  UNL1        0.0565
      3 C           9.2949   39.1544    5.4415 C.ar    1  UNL1        0.1230
      4 N           8.6510   40.0037    6.2700 N.ar    1  UNL1       -0.1666
      5 N           9.4453   41.0348    6.4958 N.ar    1  UNL1       -0.2394
      6 C           9.1264   42.1634    7.3670 C.3     1  UNL1        0.1093
      7 C           8.0371   41.7901    8.3854 C.3     1  UNL1        0.0418
      8 C           8.6026   41.4868    9.7747 C.3     1  UNL1        0.0744
      9 C          10.8660   41.9614    9.2573 C.3     1  UNL1        0.0744
     10 C          10.3954   42.7377    8.0132 C.3     1  UNL1        0.0418
     11 N           9.9329   40.9039    9.6546 N.3     1  UNL1       -0.2688
     12 C          10.3251   40.4540   10.9807 C.3     1  UNL1        0.0989
     13 C          11.8125   40.4381   11.1008 C.2     1  UNL1       -0.0088
     14 C          12.5140   39.3796   10.7055 C.2     1  UNL1       -0.0032
     15 C          13.9789   39.3176   10.7955 C.ar    1  UNL1       -0.0003
     16 C          14.8051   39.9575    9.8572 C.ar    1  UNL1       -0.0000
     17 C          16.1959   39.8753    9.9724 C.ar    1  UNL1       -0.0000
     18 C          16.7684   39.1539   11.0238 C.ar    1  UNL1       -0.0000
     19 C          15.9503   38.5149   11.9599 C.ar    1  UNL1       -0.0000
     20 C          14.5591   38.5970   11.8450 C.ar    1  UNL1       -0.0000
     21 C          12.9208   41.5992    6.5663 C.2     1  UNL1        0.2506
     22 O          13.1274   40.5445    7.2266 O.2     1  UNL1       -0.2698
     23 N          11.6838   41.7869    5.8652 N.am    1  UNL1       -0.2660
     24 H          11.5736   42.6277    5.3650 H       1  UNL1        0.1566
     25 F          17.2237   43.4082    7.9910 F       1  UNL1       -0.2042
     26 C          16.1030   43.5257    7.2396 C.ar    1  UNL1        0.1403
     27 C          15.9287   44.6399    6.4143 C.ar    1  UNL1        0.0296
     28 C          14.7723   44.7610    5.6392 C.ar    1  UNL1        0.0025
     29 C          13.7901   43.7676    5.6892 C.ar    1  UNL1        0.0047
     30 C          13.9568   42.6456    6.5146 C.ar    1  UNL1        0.0559
     31 C          15.1208   42.5322    7.2896 C.ar    1  UNL1        0.0342
@<TRIPOS>BOND
     1    26    25    1
     2    27    28   ar
     3    29    30   ar
     4    30    21    1
     5    31    26   ar
     6    21    23   am
     7     2     3   ar
     8     6     5    1
     9     6     7    1
    10     7     8    1
    11     8    11    1
    12    12    11    1
    13    12    13    1
    14    14    15    1
    15    16    17   ar
    16    18    19   ar
    17    20    15   ar
    18     9    11    1
    19     9    10    1
    20    10     6    1
    21    23     1    1
    22     5     4   ar
    23     5     1   ar
    24    26    27   ar
    25    28    29   ar
    26    30    31   ar
    27    21    22    2
    28     1     2   ar
    29     3     4   ar
    30    13    14    2
    31    15    16   ar
    32    17    18   ar
    33    19    20   ar
    34    23    24    1
