@<TRIPOS>MOLECULE
MolPort-046-971-720 MCULE-6984137246 PubChem-110111680
 29 32 0 0 0
SMALL
GASTEIGER

@<TRIPOS>ATOM
      1 C           7.2889   42.7656    8.6536 C.2     1  UNL1        0.2669
      2 C           7.3037   41.4657   10.8339 C.3     1  UNL1        0.0938
      3 C           8.2511   41.9322   11.9353 C.3     1  UNL1        0.0219
      4 C           9.6377   41.3282   11.7219 C.3     1  UNL1        0.0078
      5 C          10.1797   41.7071   10.3410 C.3     1  UNL1        0.0424
      6 C           9.2113   41.2620    9.2438 C.3     1  UNL1        0.0980
      7 N           7.8786   41.7864    9.5295 N.am    1  UNL1       -0.2745
      8 O           8.0102   43.3209    7.7794 O.2     1  UNL1       -0.2683
      9 C           2.7303   41.8449   10.3002 C.3     1  UNL1        0.0737
     10 C           3.6605   42.6931    9.5109 C.ar    1  UNL1        0.1397
     11 C           4.0275   44.5700    8.1259 C.ar    1  UNL1        0.1019
     12 C           5.3836   44.2581    8.0477 C.ar    1  UNL1        0.0444
     13 C           5.8566   43.1342    8.7341 C.ar    1  UNL1        0.1375
     14 N           3.1916   43.7859    8.8545 N.ar    1  UNL1       -0.2291
     15 N           4.9795   42.3738    9.4447 N.ar    1  UNL1       -0.2261
     16 C          11.5418   41.1303   10.1203 C.ar    1  UNL1       -0.0165
     17 C          12.2801   41.5342    9.0056 C.ar    1  UNL1        0.0302
     18 C          13.5534   41.0014    8.7893 C.ar    1  UNL1        0.1329
     19 C          13.3641   39.6831   10.7607 C.ar    1  UNL1        0.1000
     20 C          12.0894   40.1946   11.0078 C.ar    1  UNL1        0.0166
     21 N          14.0624   40.0928    9.6682 N.ar    1  UNL1       -0.2291
     22 N          14.2990   41.4251    7.6417 N.pl3   1  UNL1       -0.2834
     23 H          14.0184   41.0625    6.7705 H       1  UNL1        0.1550
     24 C          15.4134   42.3253    7.6391 C.ar    1  UNL1        0.1332
     25 C          16.5451   42.0070    8.3950 C.ar    1  UNL1        0.0345
     26 C          17.6358   42.8784    8.3981 C.ar    1  UNL1        0.0045
     27 C          17.5875   44.0555    7.6498 C.ar    1  UNL1        0.0208
     28 C          16.4414   44.3422    6.9059 C.ar    1  UNL1        0.1003
     29 N          15.3890   43.4803    6.9160 N.ar    1  UNL1       -0.2290
@<TRIPOS>BOND
     1     9    10    1
     2    10    15   ar
     3    11    14   ar
     4    12    13   ar
     5    13     1    1
     6     1     7   am
     7     2     7    1
     8     2     3    1
     9     3     4    1
    10     4     5    1
    11     5     6    1
    12     5    16    1
    13     6     7    1
    14    17    18   ar
    15    18    22    1
    16    19    21   ar
    17    20    16   ar
    18    24    29   ar
    19    25    26   ar
    20    27    28   ar
    21    22    24    1
    22    10    14   ar
    23    11    12   ar
    24    13    15   ar
    25     1     8    2
    26    16    17   ar
    27    18    21   ar
    28    19    20   ar
    29    24    25   ar
    30    26    27   ar
    31    28    29   ar
    32    22    23    1
@<TRIPOS>MOLECULE
MolPort-046-971-720 MCULE-6984137246 PubChem-110111680
 29 32 0 0 0
SMALL
GASTEIGER

@<TRIPOS>ATOM
      1 C          13.4449   41.7497    7.3807 C.2     1  UNL1        0.2669
      2 C          12.7421   40.3509    9.3790 C.3     1  UNL1        0.0938
      3 C          12.1886   38.9542    9.1119 C.3     1  UNL1        0.0219
      4 C          10.6931   39.0337    8.8119 C.3     1  UNL1        0.0078
      5 C          10.4349   39.9588    7.6195 C.3     1  UNL1        0.0424
      6 C          11.0176   41.3485    7.8824 C.3     1  UNL1        0.0980
      7 N          12.4252   41.2237    8.2509 N.am    1  UNL1       -0.2745
      8 O          13.1290   42.1126    6.2139 O.2     1  UNL1       -0.2683
      9 C          17.7998   44.0444    7.0502 C.3     1  UNL1        0.0737
     10 C          16.9537   42.9823    7.6535 C.ar    1  UNL1        0.1397
     11 C          16.7209   41.1623    9.1397 C.ar    1  UNL1        0.1019
     12 C          15.3866   41.0155    8.7648 C.ar    1  UNL1        0.0444
     13 C          14.8539   41.8934    7.8142 C.ar    1  UNL1        0.1375
     14 N          17.4793   42.1404    8.5808 N.ar    1  UNL1       -0.2291
     15 N          15.6550   42.8530    7.2758 N.ar    1  UNL1       -0.2261
     16 C           8.9745   40.0400    7.3072 C.ar    1  UNL1       -0.0165
     17 C           8.1929   41.0020    7.9510 C.ar    1  UNL1        0.0302
     18 C           6.8274   41.0864    7.6674 C.ar    1  UNL1        0.1329
     19 C           7.0107   39.2840    6.1253 C.ar    1  UNL1        0.1000
     20 C           8.3774   39.1714    6.3843 C.ar    1  UNL1        0.0166
     21 N           6.2718   40.2293    6.7654 N.ar    1  UNL1       -0.2291
     22 N           6.0382   42.0781    8.3353 N.pl3   1  UNL1       -0.2834
     23 H           6.1183   43.0036    8.0094 H       1  UNL1        0.1550
     24 C           5.1438   41.8535    9.4317 C.ar    1  UNL1        0.1332
     25 C           3.8683   42.4237    9.3950 C.ar    1  UNL1        0.0345
     26 C           2.9901   42.2099   10.4590 C.ar    1  UNL1        0.0045
     27 C           3.3912   41.4321   11.5461 C.ar    1  UNL1        0.0208
     28 C           4.6724   40.8774   11.5500 C.ar    1  UNL1        0.1003
     29 N           5.5134   41.0974   10.5037 N.ar    1  UNL1       -0.2290
@<TRIPOS>BOND
     1     9    10    1
     2    10    15   ar
     3    11    14   ar
     4    12    13   ar
     5    13     1    1
     6     1     7   am
     7     2     7    1
     8     2     3    1
     9     3     4    1
    10     4     5    1
    11     5     6    1
    12     5    16    1
    13     6     7    1
    14    17    18   ar
    15    18    22    1
    16    19    21   ar
    17    20    16   ar
    18    24    29   ar
    19    25    26   ar
    20    27    28   ar
    21    22    24    1
    22    10    14   ar
    23    11    12   ar
    24    13    15   ar
    25     1     8    2
    26    16    17   ar
    27    18    21   ar
    28    19    20   ar
    29    24    25   ar
    30    26    27   ar
    31    28    29   ar
    32    22    23    1
@<TRIPOS>MOLECULE
MolPort-046-971-720 MCULE-6984137246 PubChem-110111680
 29 32 0 0 0
SMALL
GASTEIGER

@<TRIPOS>ATOM
      1 C          13.1546   41.5449    7.9247 C.2     1  UNL1        0.2669
      2 C          11.9614   41.3743   10.1587 C.3     1  UNL1        0.0938
      3 C          10.8133   40.3764   10.2791 C.3     1  UNL1        0.0219
      4 C           9.5149   41.0122    9.7866 C.3     1  UNL1        0.0078
      5 C           9.6691   41.4928    8.3410 C.3     1  UNL1        0.0424
      6 C          10.8395   42.4705    8.2225 C.3     1  UNL1        0.0980
      7 N          12.0418   41.8596    8.7830 N.am    1  UNL1       -0.2745
      8 O          12.9980   41.5946    6.6733 O.2     1  UNL1       -0.2683
      9 C          17.9864   42.4489    8.3442 C.3     1  UNL1        0.0737
     10 C          16.8101   41.5974    8.6592 C.ar    1  UNL1        0.1397
     11 C          15.8996   39.6905    9.7127 C.ar    1  UNL1        0.1019
     12 C          14.6323   40.0217    9.2366 C.ar    1  UNL1        0.0444
     13 C          14.4851   41.1777    8.4619 C.ar    1  UNL1        0.1375
     14 N          16.9635   40.4815    9.4182 N.ar    1  UNL1       -0.2291
     15 N          15.5820   41.9348    8.1860 N.ar    1  UNL1       -0.2261
     16 C           8.4021   42.1101    7.8407 C.ar    1  UNL1       -0.0165
     17 C           7.4210   42.4907    8.7590 C.ar    1  UNL1        0.0302
     18 C           6.2332   43.0678    8.3027 C.ar    1  UNL1        0.1329
     19 C           6.9830   42.8917    6.0517 C.ar    1  UNL1        0.1000
     20 C           8.1811   42.3126    6.4720 C.ar    1  UNL1        0.0166
     21 N           6.0437   43.2536    6.9661 N.ar    1  UNL1       -0.2291
     22 N           5.2359   43.4533    9.2563 N.pl3   1  UNL1       -0.2834
     23 H           5.0056   44.4096    9.2967 H       1  UNL1        0.1550
     24 C           4.5414   42.5820   10.1567 C.ar    1  UNL1        0.1332
     25 C           5.1735   41.4153   10.5955 C.ar    1  UNL1        0.0345
     26 C           4.5042   40.5605   11.4732 C.ar    1  UNL1        0.0045
     27 C           3.2147   40.8763   11.9033 C.ar    1  UNL1        0.0208
     28 C           2.6130   42.0500   11.4453 C.ar    1  UNL1        0.1003
     29 N           3.2818   42.8698   10.5903 N.ar    1  UNL1       -0.2290
@<TRIPOS>BOND
     1     9    10    1
     2    10    15   ar
     3    11    14   ar
     4    12    13   ar
     5    13     1    1
     6     1     7   am
     7     2     7    1
     8     2     3    1
     9     3     4    1
    10     4     5    1
    11     5     6    1
    12     5    16    1
    13     6     7    1
    14    17    18   ar
    15    18    22    1
    16    19    21   ar
    17    20    16   ar
    18    24    29   ar
    19    25    26   ar
    20    27    28   ar
    21    22    24    1
    22    10    14   ar
    23    11    12   ar
    24    13    15   ar
    25     1     8    2
    26    16    17   ar
    27    18    21   ar
    28    19    20   ar
    29    24    25   ar
    30    26    27   ar
    31    28    29   ar
    32    22    23    1
@<TRIPOS>MOLECULE
MolPort-046-971-720 MCULE-6984137246 PubChem-110111680
 29 32 0 0 0
SMALL
GASTEIGER

@<TRIPOS>ATOM
      1 C          13.5664   37.4629   10.4621 C.2     1  UNL1        0.2669
      2 C          13.1288   39.0838    8.5581 C.3     1  UNL1        0.0938
      3 C          13.2835   40.5750    8.8419 C.3     1  UNL1        0.0219
      4 C          11.9898   41.1309    9.4337 C.3     1  UNL1        0.0078
      5 C          11.6142   40.3703   10.7083 C.3     1  UNL1        0.0424
      6 C          11.4890   38.8728   10.4224 C.3     1  UNL1        0.0980
      7 N          12.7102   38.3972    9.7780 N.am    1  UNL1       -0.2745
      8 O          13.3717   37.2360   11.6883 O.2     1  UNL1       -0.2683
      9 C          15.2810   33.3988    8.2524 C.3     1  UNL1        0.0737
     10 C          15.4988   34.7931    8.7176 C.ar    1  UNL1        0.1397
     11 C          16.9188   36.6657    8.9465 C.ar    1  UNL1        0.1019
     12 C          15.8998   37.3715    9.5836 C.ar    1  UNL1        0.0444
     13 C          14.6622   36.7457    9.7704 C.ar    1  UNL1        0.1375
     14 N          16.7019   35.3932    8.5245 N.ar    1  UNL1       -0.2291
     15 N          14.4945   35.4662    9.3377 N.ar    1  UNL1       -0.2261
     16 C          10.3533   40.9094   11.3053 C.ar    1  UNL1       -0.0165
     17 C           9.3312   41.3455   10.4591 C.ar    1  UNL1        0.0302
     18 C           8.1493   41.8515   11.0060 C.ar    1  UNL1        0.1329
     19 C           8.9853   41.4967   13.2050 C.ar    1  UNL1        0.1000
     20 C          10.1789   40.9857   12.6934 C.ar    1  UNL1        0.0166
     21 N           8.0054   41.9145   12.3596 N.ar    1  UNL1       -0.2291
     22 N           7.1096   42.2949   10.1258 N.pl3   1  UNL1       -0.2834
     23 H           7.3810   42.8592    9.3660 H       1  UNL1        0.1550
     24 C           5.7134   41.9968   10.2439 C.ar    1  UNL1        0.1332
     25 C           4.9277   41.9565    9.0888 C.ar    1  UNL1        0.0345
     26 C           3.5661   41.6665    9.1945 C.ar    1  UNL1        0.0045
     27 C           3.0029   41.4207   10.4475 C.ar    1  UNL1        0.0208
     28 C           3.8170   41.4690   11.5807 C.ar    1  UNL1        0.1003
     29 N           5.1414   41.7533   11.4568 N.ar    1  UNL1       -0.2290
@<TRIPOS>BOND
     1     9    10    1
     2    10    15   ar
     3    11    14   ar
     4    12    13   ar
     5    13     1    1
     6     1     7   am
     7     2     7    1
     8     2     3    1
     9     3     4    1
    10     4     5    1
    11     5     6    1
    12     5    16    1
    13     6     7    1
    14    17    18   ar
    15    18    22    1
    16    19    21   ar
    17    20    16   ar
    18    24    29   ar
    19    25    26   ar
    20    27    28   ar
    21    22    24    1
    22    10    14   ar
    23    11    12   ar
    24    13    15   ar
    25     1     8    2
    26    16    17   ar
    27    18    21   ar
    28    19    20   ar
    29    24    25   ar
    30    26    27   ar
    31    28    29   ar
    32    22    23    1
@<TRIPOS>MOLECULE
MolPort-046-971-720 MCULE-6984137246 PubChem-110111680
 29 32 0 0 0
SMALL
GASTEIGER

@<TRIPOS>ATOM
      1 C           9.7433   41.7030   10.0553 C.2     1  UNL1        0.2669
      2 C          10.2344   39.9135    8.3232 C.3     1  UNL1        0.0938
      3 C          10.5873   38.5157    8.8229 C.3     1  UNL1        0.0219
      4 C          12.0804   38.4339    9.1342 C.3     1  UNL1        0.0078
      5 C          12.4709   39.4956   10.1660 C.3     1  UNL1        0.0424
      6 C          12.0881   40.8914    9.6709 C.3     1  UNL1        0.0980
      7 N          10.6754   40.9055    9.3010 N.am    1  UNL1       -0.2745
      8 O          10.1119   42.2034   11.1538 O.2     1  UNL1       -0.2683
      9 C           6.6886   43.5203    6.6340 C.3     1  UNL1        0.0737
     10 C           6.8913   42.8504    7.9447 C.ar    1  UNL1        0.1397
     11 C           5.9867   41.8946    9.9052 C.ar    1  UNL1        0.1019
     12 C           7.2700   41.6148   10.3714 C.ar    1  UNL1        0.0444
     13 C           8.3667   41.9690    9.5778 C.ar    1  UNL1        0.1375
     14 N           5.8191   42.5044    8.7034 N.ar    1  UNL1       -0.2291
     15 N           8.1494   42.5860    8.3842 N.ar    1  UNL1       -0.2261
     16 C          13.9294   39.4224   10.4885 C.ar    1  UNL1       -0.0165
     17 C          14.8390   40.1220    9.6922 C.ar    1  UNL1        0.0302
     18 C          16.2040   40.0601    9.9840 C.ar    1  UNL1        0.1329
     19 C          15.7695   38.6275   11.8330 C.ar    1  UNL1        0.1000
     20 C          14.3994   38.6667   11.5708 C.ar    1  UNL1        0.0166
     21 N          16.6343   39.3178   11.0426 N.ar    1  UNL1       -0.2291
     22 N          17.1251   40.7830    9.1586 N.pl3   1  UNL1       -0.2834
     23 H          18.0458   40.4374    9.1117 H       1  UNL1        0.1550
     24 C          16.8364   41.9600    8.3947 C.ar    1  UNL1        0.1332
     25 C          17.8076   42.9602    8.2954 C.ar    1  UNL1        0.0345
     26 C          17.5349   44.1105    7.5529 C.ar    1  UNL1        0.0045
     27 C          16.2998   44.2521    6.9187 C.ar    1  UNL1        0.0208
     28 C          15.3526   43.2335    7.0386 C.ar    1  UNL1        0.1003
     29 N          15.6375   42.1203    7.7666 N.ar    1  UNL1       -0.2290
@<TRIPOS>BOND
     1     9    10    1
     2    10    15   ar
     3    11    14   ar
     4    12    13   ar
     5    13     1    1
     6     1     7   am
     7     2     7    1
     8     2     3    1
     9     3     4    1
    10     4     5    1
    11     5     6    1
    12     5    16    1
    13     6     7    1
    14    17    18   ar
    15    18    22    1
    16    19    21   ar
    17    20    16   ar
    18    24    29   ar
    19    25    26   ar
    20    27    28   ar
    21    22    24    1
    22    10    14   ar
    23    11    12   ar
    24    13    15   ar
    25     1     8    2
    26    16    17   ar
    27    18    21   ar
    28    19    20   ar
    29    24    25   ar
    30    26    27   ar
    31    28    29   ar
    32    22    23    1
@<TRIPOS>MOLECULE
MolPort-046-971-720 MCULE-6984137246 PubChem-110111680
 29 32 0 0 0
SMALL
GASTEIGER

@<TRIPOS>ATOM
      1 C           7.1341   41.4039    9.0515 C.2     1  UNL1        0.2669
      2 C           8.0845   43.0767   10.7075 C.3     1  UNL1        0.0938
      3 C           9.2260   43.9741   10.2384 C.3     1  UNL1        0.0219
      4 C          10.5612   43.2518   10.4073 C.3     1  UNL1        0.0078
      5 C          10.5557   41.9296    9.6353 C.3     1  UNL1        0.0424
      6 C           9.3920   41.0473   10.0905 C.3     1  UNL1        0.0980
      7 N           8.1448   41.8013    9.9972 N.am    1  UNL1       -0.2745
      8 O           7.4226   40.5516    8.1665 O.2     1  UNL1       -0.2683
      9 C           3.9201   44.9566    7.8731 C.3     1  UNL1        0.0737
     10 C           4.2099   43.6604    8.5393 C.ar    1  UNL1        0.1397
     11 C           3.4699   41.8136    9.8111 C.ar    1  UNL1        0.1019
     12 C           4.7503   41.2643    9.7746 C.ar    1  UNL1        0.0444
     13 C           5.7588   41.9522    9.0907 C.ar    1  UNL1        0.1375
     14 N           3.2215   42.9976    9.1941 N.ar    1  UNL1       -0.2291
     15 N           5.4641   43.1398    8.4945 N.ar    1  UNL1       -0.2261
     16 C          11.8608   41.2142    9.7834 C.ar    1  UNL1       -0.0165
     17 C          12.9290   41.5677    8.9560 C.ar    1  UNL1        0.0302
     18 C          14.1525   40.9056    9.0852 C.ar    1  UNL1        0.1329
     19 C          13.2671   39.5584   10.8348 C.ar    1  UNL1        0.1000
     20 C          12.0312   40.1985   10.7333 C.ar    1  UNL1        0.0166
     21 N          14.2915   39.9214   10.0174 N.ar    1  UNL1       -0.2291
     22 N          15.2392   41.2790    8.2297 N.pl3   1  UNL1       -0.2834
     23 H          16.0261   40.6873    8.2265 H       1  UNL1        0.1550
     24 C          15.2920   42.4300    7.3783 C.ar    1  UNL1        0.1332
     25 C          14.2715   42.6312    6.4447 C.ar    1  UNL1        0.0345
     26 C          14.3147   43.7503    5.6112 C.ar    1  UNL1        0.0045
     27 C          15.3721   44.6550    5.7161 C.ar    1  UNL1        0.0208
     28 C          16.3746   44.4234    6.6598 C.ar    1  UNL1        0.1003
     29 N          16.3145   43.3271    7.4629 N.ar    1  UNL1       -0.2290
@<TRIPOS>BOND
     1     9    10    1
     2    10    15   ar
     3    11    14   ar
     4    12    13   ar
     5    13     1    1
     6     1     7   am
     7     2     7    1
     8     2     3    1
     9     3     4    1
    10     4     5    1
    11     5     6    1
    12     5    16    1
    13     6     7    1
    14    17    18   ar
    15    18    22    1
    16    19    21   ar
    17    20    16   ar
    18    24    29   ar
    19    25    26   ar
    20    27    28   ar
    21    22    24    1
    22    10    14   ar
    23    11    12   ar
    24    13    15   ar
    25     1     8    2
    26    16    17   ar
    27    18    21   ar
    28    19    20   ar
    29    24    25   ar
    30    26    27   ar
    31    28    29   ar
    32    22    23    1
@<TRIPOS>MOLECULE
MolPort-046-971-720 MCULE-6984137246 PubChem-110111680
 29 32 0 0 0
SMALL
GASTEIGER

@<TRIPOS>ATOM
      1 C           9.3842   41.0571    8.3489 C.2     1  UNL1        0.2669
      2 C           9.4416   42.1265   10.6504 C.3     1  UNL1        0.0938
      3 C           8.7343   41.4009   11.7913 C.3     1  UNL1        0.0219
      4 C           7.2521   41.7691   11.8050 C.3     1  UNL1        0.0078
      5 C           6.6040   41.4304   10.4598 C.3     1  UNL1        0.0424
      6 C           7.3358   42.1384    9.3183 C.3     1  UNL1        0.0980
      7 N           8.7619   41.8320    9.3910 N.am    1  UNL1       -0.2745
      8 O           8.6555   40.4671    7.5040 O.2     1  UNL1       -0.2683
      9 C          13.6901   42.8552    6.7470 C.3     1  UNL1        0.0737
     10 C          12.9279   41.7902    7.4491 C.ar    1  UNL1        0.1397
     11 C          12.8970   39.7266    8.5963 C.ar    1  UNL1        0.1019
     12 C          11.5143   39.8194    8.7439 C.ar    1  UNL1        0.0444
     13 C          10.8555   40.9399    8.2255 C.ar    1  UNL1        0.1375
     14 N          13.5787   40.7105    7.9548 N.ar    1  UNL1       -0.2291
     15 N          11.5801   41.8964    7.5832 N.ar    1  UNL1       -0.2261
     16 C           5.1492   41.7770   10.4605 C.ar    1  UNL1       -0.0165
     17 C           4.4167   41.6387   11.6417 C.ar    1  UNL1        0.0302
     18 C           3.0567   41.9590   11.6537 C.ar    1  UNL1        0.1329
     19 C           3.1491   42.5463    9.3500 C.ar    1  UNL1        0.1000
     20 C           4.5088   42.2357    9.3018 C.ar    1  UNL1        0.0166
     21 N           2.4585   42.4032   10.5127 N.ar    1  UNL1       -0.2291
     22 N           2.3183   41.8123   12.8725 N.pl3   1  UNL1       -0.2834
     23 H           2.6289   41.1201   13.4999 H       1  UNL1        0.1550
     24 C           1.1717   42.5752   13.2668 C.ar    1  UNL1        0.1332
     25 C           1.3581   43.7559   13.9911 C.ar    1  UNL1        0.0345
     26 C           0.2464   44.5058   14.3793 C.ar    1  UNL1        0.0045
     27 C          -1.0367   44.0722   14.0428 C.ar    1  UNL1        0.0208
     28 C          -1.1866   42.8882   13.3183 C.ar    1  UNL1        0.1003
     29 N          -0.0908   42.1717   12.9493 N.ar    1  UNL1       -0.2290
@<TRIPOS>BOND
     1     9    10    1
     2    10    15   ar
     3    11    14   ar
     4    12    13   ar
     5    13     1    1
     6     1     7   am
     7     2     7    1
     8     2     3    1
     9     3     4    1
    10     4     5    1
    11     5     6    1
    12     5    16    1
    13     6     7    1
    14    17    18   ar
    15    18    22    1
    16    19    21   ar
    17    20    16   ar
    18    24    29   ar
    19    25    26   ar
    20    27    28   ar
    21    22    24    1
    22    10    14   ar
    23    11    12   ar
    24    13    15   ar
    25     1     8    2
    26    16    17   ar
    27    18    21   ar
    28    19    20   ar
    29    24    25   ar
    30    26    27   ar
    31    28    29   ar
    32    22    23    1
@<TRIPOS>MOLECULE
MolPort-046-971-720 MCULE-6984137246 PubChem-110111680
 29 32 0 0 0
SMALL
GASTEIGER

@<TRIPOS>ATOM
      1 C           7.0506   41.8814   10.1461 C.2     1  UNL1        0.2669
      2 C           8.0634   42.3453    7.8652 C.3     1  UNL1        0.0938
      3 C           8.6862   41.1745    7.1104 C.3     1  UNL1        0.0219
      4 C          10.1313   40.9717    7.5616 C.3     1  UNL1        0.0078
      5 C          10.1921   40.7388    9.0737 C.3     1  UNL1        0.0424
      6 C           9.5405   41.9026    9.8225 C.3     1  UNL1        0.0980
      7 N           8.1932   42.1214    9.3032 N.am    1  UNL1       -0.2745
      8 O           7.2126   41.2781   11.2428 O.2     1  UNL1       -0.2683
      9 C           4.1008   45.0094    7.7266 C.3     1  UNL1        0.0737
     10 C           4.2637   43.8380    8.6262 C.ar    1  UNL1        0.1397
     11 C           3.2999   42.1317    9.9433 C.ar    1  UNL1        0.1019
     12 C           4.5686   41.6735   10.2938 C.ar    1  UNL1        0.0444
     13 C           5.6892   42.3323    9.7758 C.ar    1  UNL1        0.1375
     14 N           3.1689   43.2017    9.1174 N.ar    1  UNL1       -0.2291
     15 N           5.5081   43.4053    8.9582 N.ar    1  UNL1       -0.2261
     16 C          11.6009   40.5293    9.5300 C.ar    1  UNL1       -0.0165
     17 C          12.6517   40.9420    8.7077 C.ar    1  UNL1        0.0302
     18 C          13.9717   40.7506    9.1237 C.ar    1  UNL1        0.1329
     19 C          13.2158   39.7524   11.1467 C.ar    1  UNL1        0.1000
     20 C          11.8856   39.9279   10.7631 C.ar    1  UNL1        0.0166
     21 N          14.2208   40.1632   10.3278 N.ar    1  UNL1       -0.2291
     22 N          15.0392   41.1790    8.2698 N.pl3   1  UNL1       -0.2834
     23 H          15.8489   40.6192    8.2553 H       1  UNL1        0.1550
     24 C          15.0426   42.3431    7.4347 C.ar    1  UNL1        0.1332
     25 C          13.9992   42.5280    6.5235 C.ar    1  UNL1        0.0345
     26 C          13.9943   43.6596    5.7059 C.ar    1  UNL1        0.0045
     27 C          15.0271   44.5930    5.8045 C.ar    1  UNL1        0.0208
     28 C          16.0537   44.3771    6.7257 C.ar    1  UNL1        0.1003
     29 N          16.0404   43.2681    7.5134 N.ar    1  UNL1       -0.2290
@<TRIPOS>BOND
     1     9    10    1
     2    10    15   ar
     3    11    14   ar
     4    12    13   ar
     5    13     1    1
     6     1     7   am
     7     2     7    1
     8     2     3    1
     9     3     4    1
    10     4     5    1
    11     5     6    1
    12     5    16    1
    13     6     7    1
    14    17    18   ar
    15    18    22    1
    16    19    21   ar
    17    20    16   ar
    18    24    29   ar
    19    25    26   ar
    20    27    28   ar
    21    22    24    1
    22    10    14   ar
    23    11    12   ar
    24    13    15   ar
    25     1     8    2
    26    16    17   ar
    27    18    21   ar
    28    19    20   ar
    29    24    25   ar
    30    26    27   ar
    31    28    29   ar
    32    22    23    1
@<TRIPOS>MOLECULE
MolPort-046-971-720 MCULE-6984137246 PubChem-110111680
 29 32 0 0 0
SMALL
GASTEIGER

@<TRIPOS>ATOM
      1 C          15.3632   35.9117    8.0923 C.2     1  UNL1        0.2669
      2 C          14.4442   36.4245   10.4023 C.3     1  UNL1        0.0938
      3 C          12.9403   36.2831   10.6186 C.3     1  UNL1        0.0219
      4 C          12.2293   37.5677   10.1979 C.3     1  UNL1        0.0078
      5 C          12.5403   37.8973    8.7354 C.3     1  UNL1        0.0424
      6 C          14.0506   38.0091    8.5200 C.3     1  UNL1        0.0980
      7 N          14.7030   36.7995    9.0141 N.am    1  UNL1       -0.2745
      8 O          15.1838   36.0693    6.8529 O.2     1  UNL1       -0.2683
      9 C          19.6483   34.4569   10.0573 C.3     1  UNL1        0.0737
     10 C          18.3213   34.1163    9.4820 C.ar    1  UNL1        0.1397
     11 C          16.7393   32.4873    8.8345 C.ar    1  UNL1        0.1019
     12 C          15.8669   33.4893    8.4132 C.ar    1  UNL1        0.0444
     13 C          16.2600   34.8253    8.5495 C.ar    1  UNL1        0.1375
     14 N          17.9471   32.8162    9.3611 N.ar    1  UNL1       -0.2291
     15 N          17.4837   35.1058    9.0756 N.ar    1  UNL1       -0.2261
     16 C          11.8434   39.1487    8.3054 C.ar    1  UNL1       -0.0165
     17 C          12.5285   40.3644    8.3641 C.ar    1  UNL1        0.0302
     18 C          11.8868   41.5398    7.9654 C.ar    1  UNL1        0.1329
     19 C           9.9099   40.3178    7.4567 C.ar    1  UNL1        0.1000
     20 C          10.5196   39.1247    7.8468 C.ar    1  UNL1        0.0166
     21 N          10.5989   41.4884    7.5232 N.ar    1  UNL1       -0.2291
     22 N          12.6021   42.7794    8.0310 N.pl3   1  UNL1       -0.2834
     23 H          12.2901   43.4382    8.6926 H       1  UNL1        0.1550
     24 C          13.7274   43.1530    7.2271 C.ar    1  UNL1        0.1332
     25 C          15.0008   42.7081    7.5929 C.ar    1  UNL1        0.0345
     26 C          16.1032   43.0673    6.8152 C.ar    1  UNL1        0.0045
     27 C          15.9255   43.8646    5.6836 C.ar    1  UNL1        0.0208
     28 C          14.6395   44.2913    5.3470 C.ar    1  UNL1        0.1003
     29 N          13.5783   43.9306    6.1177 N.ar    1  UNL1       -0.2290
@<TRIPOS>BOND
     1     9    10    1
     2    10    15   ar
     3    11    14   ar
     4    12    13   ar
     5    13     1    1
     6     1     7   am
     7     2     7    1
     8     2     3    1
     9     3     4    1
    10     4     5    1
    11     5     6    1
    12     5    16    1
    13     6     7    1
    14    17    18   ar
    15    18    22    1
    16    19    21   ar
    17    20    16   ar
    18    24    29   ar
    19    25    26   ar
    20    27    28   ar
    21    22    24    1
    22    10    14   ar
    23    11    12   ar
    24    13    15   ar
    25     1     8    2
    26    16    17   ar
    27    18    21   ar
    28    19    20   ar
    29    24    25   ar
    30    26    27   ar
    31    28    29   ar
    32    22    23    1
@<TRIPOS>MOLECULE
MolPort-046-971-720 MCULE-6984137246 PubChem-110111680
 29 32 0 0 0
SMALL
GASTEIGER

@<TRIPOS>ATOM
      1 C          13.8880   41.7592    7.3187 C.2     1  UNL1        0.2669
      2 C          13.4601   40.0496    9.1457 C.3     1  UNL1        0.0938
      3 C          13.0658   38.6376    8.7224 C.3     1  UNL1        0.0219
      4 C          11.5584   38.5647    8.4873 C.3     1  UNL1        0.0078
      5 C          11.1311   39.5887    7.4322 C.3     1  UNL1        0.0424
      6 C          11.5549   40.9979    7.8496 C.3     1  UNL1        0.0980
      7 N          12.9841   41.0069    8.1498 N.am    1  UNL1       -0.2745
      8 O          13.4724   42.2193    6.2194 O.2     1  UNL1       -0.2683
      9 C          18.0917   44.2725    6.7257 C.3     1  UNL1        0.0737
     10 C          17.3174   43.2191    7.4318 C.ar    1  UNL1        0.1397
     11 C          17.2096   41.5266    9.0748 C.ar    1  UNL1        0.1019
     12 C          15.8834   41.2676    8.7335 C.ar    1  UNL1        0.0444
     13 C          15.2895   42.0247    7.7176 C.ar    1  UNL1        0.1375
     14 N          17.9019   42.4953    8.4215 N.ar    1  UNL1       -0.2291
     15 N          16.0257   42.9793    7.0857 N.ar    1  UNL1       -0.2261
     16 C           9.6577   39.5233    7.1840 C.ar    1  UNL1       -0.0165
     17 C           8.8293   40.5007    7.7400 C.ar    1  UNL1        0.0302
     18 C           7.4513   40.4490    7.5152 C.ar    1  UNL1        0.1329
     19 C           7.7139   38.4818    6.2032 C.ar    1  UNL1        0.1000
     20 C           9.0943   38.5025    6.4071 C.ar    1  UNL1        0.0166
     21 N           6.9292   39.4454    6.7555 N.ar    1  UNL1       -0.2291
     22 N           6.6141   41.4585    8.0918 N.pl3   1  UNL1       -0.2834
     23 H           5.6587   41.2416    8.1887 H       1  UNL1        0.1550
     24 C           7.0324   42.7528    8.5410 C.ar    1  UNL1        0.1332
     25 C           6.3784   43.8861    8.0498 C.ar    1  UNL1        0.0345
     26 C           6.7794   45.1515    8.4823 C.ar    1  UNL1        0.0045
     27 C           7.8258   45.2742    9.3976 C.ar    1  UNL1        0.0208
     28 C           8.4570   44.1211    9.8679 C.ar    1  UNL1        0.1003
     29 N           8.0516   42.8972    9.4343 N.ar    1  UNL1       -0.2290
@<TRIPOS>BOND
     1     9    10    1
     2    10    15   ar
     3    11    14   ar
     4    12    13   ar
     5    13     1    1
     6     1     7   am
     7     2     7    1
     8     2     3    1
     9     3     4    1
    10     4     5    1
    11     5     6    1
    12     5    16    1
    13     6     7    1
    14    17    18   ar
    15    18    22    1
    16    19    21   ar
    17    20    16   ar
    18    24    29   ar
    19    25    26   ar
    20    27    28   ar
    21    22    24    1
    22    10    14   ar
    23    11    12   ar
    24    13    15   ar
    25     1     8    2
    26    16    17   ar
    27    18    21   ar
    28    19    20   ar
    29    24    25   ar
    30    26    27   ar
    31    28    29   ar
    32    22    23    1
