@<TRIPOS>MOLECULE
MolPort-005-025-664 14883125 CSSS00160429083 PubChem-26279097 ZINC000014883125 ZINC14883125
 36 39 0 0 0
SMALL
GASTEIGER

@<TRIPOS>ATOM
      1 C          14.3523   42.9894    6.8836 C.ar    1  UNL1        0.1199
      2 C          13.4258   42.1914    7.5824 C.ar    1  UNL1        0.0649
      3 C          14.0439   41.2779    8.4425 C.ar    1  UNL1        0.0380
      4 C          13.4197   40.3577    9.2840 C.ar    1  UNL1        0.0045
      5 C          14.2264   39.5187   10.0679 C.ar    1  UNL1        0.0162
      6 C          15.6295   39.6132    9.9812 C.ar    1  UNL1        0.0757
      7 C          15.4232   41.3345    8.3965 C.ar    1  UNL1        0.1117
      8 N          16.2094   40.5255    9.1474 N.ar    1  UNL1       -0.2417
      9 S          15.9231   42.5203    7.3242 S.2     1  UNL1       -0.0603
     10 C          11.1231   42.7321    8.4796 C.2     1  UNL1        0.2497
     11 O          11.5902   43.2421    9.5328 O.2     1  UNL1       -0.2698
     12 N          12.0016   42.2671    7.4472 N.am    1  UNL1       -0.2798
     13 H          11.6023   41.9825    6.5935 H       1  UNL1        0.1552
     14 C           9.6700   42.6550    8.3102 C.2     1  UNL1        0.0580
     15 C           8.8352   43.3134    9.1110 C.2     1  UNL1        0.0047
     16 C           7.3749   43.2459    8.9644 C.ar    1  UNL1        0.0024
     17 C           6.6550   42.0773    9.2620 C.ar    1  UNL1        0.0296
     18 C           5.2647   42.0500    9.1152 C.ar    1  UNL1        0.1401
     19 C           4.5868   43.1884    8.6707 C.ar    1  UNL1        0.0296
     20 C           5.2987   44.3537    8.3729 C.ar    1  UNL1        0.0023
     21 C           6.6893   44.3813    8.5194 C.ar    1  UNL1        0.0001
     22 F           4.5753   40.9208    9.4046 F       1  UNL1       -0.2042
     23 C          14.0704   44.1325    5.9995 C.2     1  UNL1        0.3487
     24 O          13.0495   44.1321    5.2592 O.2     1  UNL1       -0.2443
     25 C          16.3228   45.1048    5.7986 C.3     1  UNL1        0.2560
     26 O          14.9264   45.2351    6.0165 O.3     1  UNL1       -0.4410
     27 C          16.4860   38.7656   10.8585 C.3     1  UNL1        0.1190
     28 C          18.4799   37.5705   11.0050 C.3     1  UNL1        0.0903
     29 N          17.5041   38.0902   10.0651 N.3     1  UNL1       -0.2599
     30 C          16.8764   36.9331    9.4388 C.3     1  UNL1        0.1408
     31 C          15.5815   36.5839   10.1070 C.ar    1  UNL1        0.1702
     32 C          14.4264   36.1232    9.4944 C.ar    1  UNL1        0.0550
     33 C          13.5735   35.9844   10.5719 C.ar    1  UNL1        0.1008
     34 C          12.1628   35.5232   10.4915 C.3     1  UNL1        0.0557
     35 O          15.3891   36.6856   11.3999 O.2     1  UNL1       -0.3567
     36 N          14.1816   36.3315   11.7199 N.ar    1  UNL1       -0.0817
@<TRIPOS>BOND
     1    25    26    1
     2    23    26    1
     3    23     1    1
     4     1     9   ar
     5     2    12    1
     6     2     3   ar
     7    10    14    1
     8    15    16    1
     9    17    18   ar
    10    18    22    1
    11    19    20   ar
    12    21    16   ar
    13     4     5   ar
    14     6     8   ar
    15    27     6    1
    16    27    29    1
    17    28    29    1
    18    30    29    1
    19    30    31    1
    20    31    35   ar
    21    32    33   ar
    22    34    33    1
    23     7     9   ar
    24     7     3   ar
    25    12    10   am
    26    36    35   ar
    27    23    24    2
    28     1     2   ar
    29    10    11    2
    30    14    15    2
    31    16    17   ar
    32    18    19   ar
    33    20    21   ar
    34     3     4   ar
    35     5     6   ar
    36    31    32   ar
    37    33    36   ar
    38     7     8   ar
    39    12    13    1
@<TRIPOS>MOLECULE
MolPort-005-025-664 14883125 CSSS00160429083 PubChem-26279097 ZINC000014883125 ZINC14883125
 36 39 0 0 0
SMALL
GASTEIGER

@<TRIPOS>ATOM
      1 C           7.8605   41.8069   11.1553 C.ar    1  UNL1        0.1199
      2 C           6.7340   41.4698   10.3801 C.ar    1  UNL1        0.0649
      3 C           7.0674   41.1397    9.0624 C.ar    1  UNL1        0.0380
      4 C           6.1969   40.7479    8.0459 C.ar    1  UNL1        0.0045
      5 C           6.7348   40.4659    6.7808 C.ar    1  UNL1        0.0162
      6 C           8.1210   40.5939    6.5634 C.ar    1  UNL1        0.0757
      7 C           8.4193   41.2463    8.8000 C.ar    1  UNL1        0.1117
      8 N           8.9463   40.9793    7.5803 N.ar    1  UNL1       -0.2417
      9 S           9.2456   41.7204   10.1778 S.2     1  UNL1       -0.0603
     10 C           4.3880   42.4145   10.4378 C.2     1  UNL1        0.2497
     11 O           4.6337   43.2350    9.5136 O.2     1  UNL1       -0.2698
     12 N           5.3799   41.4647   10.8475 N.am    1  UNL1       -0.2798
     13 H           5.1147   40.7665   11.4890 H       1  UNL1        0.1552
     14 C           3.0623   42.4213   11.0614 C.2     1  UNL1        0.0580
     15 C           2.9020   42.6402   12.3645 C.2     1  UNL1        0.0047
     16 C           1.5835   42.6450   13.0127 C.ar    1  UNL1        0.0024
     17 C           0.5252   41.8507   12.5421 C.ar    1  UNL1        0.0296
     18 C          -0.7154   41.8768   13.1866 C.ar    1  UNL1        0.1401
     19 C          -0.9054   42.6955   14.3031 C.ar    1  UNL1        0.0296
     20 C           0.1444   43.4882   14.7750 C.ar    1  UNL1        0.0023
     21 C           1.3855   43.4625   14.1306 C.ar    1  UNL1        0.0001
     22 F          -1.7323   41.1080   12.7293 F       1  UNL1       -0.2042
     23 C           7.9100   42.0798   12.6013 C.2     1  UNL1        0.3487
     24 O           7.4634   43.1650   13.0632 O.2     1  UNL1       -0.2443
     25 C           9.7699   41.1373   13.9095 C.3     1  UNL1        0.2560
     26 O           8.4234   41.1077   13.4616 O.3     1  UNL1       -0.4410
     27 C           8.7005   40.2351    5.2378 C.3     1  UNL1        0.1190
     28 C          10.8680   40.2156    6.0905 C.3     1  UNL1        0.0903
     29 N          10.0201   40.8337    5.0881 N.3     1  UNL1       -0.2599
     30 C          10.5445   40.4214    3.7920 C.3     1  UNL1        0.1408
     31 C          10.2281   38.9853    3.5048 C.ar    1  UNL1        0.1702
     32 C          11.0188   37.8844    3.7959 C.ar    1  UNL1        0.0550
     33 C          10.2478   36.8479    3.3069 C.ar    1  UNL1        0.1008
     34 C          10.6255   35.4108    3.3431 C.3     1  UNL1        0.0557
     35 O           9.1232   38.5961    2.9160 O.2     1  UNL1       -0.3567
     36 N           9.0995   37.3054    2.7775 N.ar    1  UNL1       -0.0817
@<TRIPOS>BOND
     1    25    26    1
     2    23    26    1
     3    23     1    1
     4     1     9   ar
     5     2    12    1
     6     2     3   ar
     7    10    14    1
     8    15    16    1
     9    17    18   ar
    10    18    22    1
    11    19    20   ar
    12    21    16   ar
    13     4     5   ar
    14     6     8   ar
    15    27     6    1
    16    27    29    1
    17    28    29    1
    18    30    29    1
    19    30    31    1
    20    31    35   ar
    21    32    33   ar
    22    34    33    1
    23     7     9   ar
    24     7     3   ar
    25    12    10   am
    26    36    35   ar
    27    23    24    2
    28     1     2   ar
    29    10    11    2
    30    14    15    2
    31    16    17   ar
    32    18    19   ar
    33    20    21   ar
    34     3     4   ar
    35     5     6   ar
    36    31    32   ar
    37    33    36   ar
    38     7     8   ar
    39    12    13    1
@<TRIPOS>MOLECULE
MolPort-005-025-664 14883125 CSSS00160429083 PubChem-26279097 ZINC000014883125 ZINC14883125
 36 39 0 0 0
SMALL
GASTEIGER

@<TRIPOS>ATOM
      1 C          11.5731   41.8955    9.0054 C.ar    1  UNL1        0.1199
      2 C          10.8408   40.6952    9.0856 C.ar    1  UNL1        0.0649
      3 C          11.6419   39.5634    8.9026 C.ar    1  UNL1        0.0380
      4 C          11.2362   38.2296    8.9359 C.ar    1  UNL1        0.0045
      5 C          12.2017   37.2346    8.7186 C.ar    1  UNL1        0.0162
      6 C          13.5388   37.5982    8.4632 C.ar    1  UNL1        0.0757
      7 C          12.9656   39.8682    8.6522 C.ar    1  UNL1        0.1117
      8 N          13.9034   38.9136    8.4378 N.ar    1  UNL1       -0.2417
      9 S          13.1968   41.5271    8.6749 S.2     1  UNL1       -0.0603
     10 C           8.4377   40.8212    8.3053 C.2     1  UNL1        0.2497
     11 O           8.7762   40.9739    7.1013 O.2     1  UNL1       -0.2698
     12 N           9.4300   40.6010    9.3157 N.am    1  UNL1       -0.2798
     13 H           9.1236   40.3711   10.2226 H       1  UNL1        0.1552
     14 C           7.0142   40.8352    8.6515 C.2     1  UNL1        0.0580
     15 C           6.5451   41.5681    9.6587 C.2     1  UNL1        0.0047
     16 C           5.1233   41.5925   10.0282 C.ar    1  UNL1        0.0024
     17 C           4.6982   41.3680   11.3478 C.ar    1  UNL1        0.0296
     18 C           3.3367   41.4032   11.6646 C.ar    1  UNL1        0.1401
     19 C           2.3938   41.6626   10.6663 C.ar    1  UNL1        0.0296
     20 C           2.8117   41.8863    9.3516 C.ar    1  UNL1        0.0023
     21 C           4.1733   41.8510    9.0342 C.ar    1  UNL1        0.0001
     22 F           2.9323   41.1870   12.9389 F       1  UNL1       -0.2042
     23 C          11.0947   43.2622    9.2722 C.2     1  UNL1        0.3487
     24 O          11.8110   44.2588    8.9822 O.2     1  UNL1       -0.2443
     25 C           9.5943   43.4219   11.2170 C.3     1  UNL1        0.2560
     26 O           9.8222   43.4453    9.8163 O.3     1  UNL1       -0.4410
     27 C          14.5758   36.5411    8.2938 C.3     1  UNL1        0.1190
     28 C          14.0033   34.5460    9.3507 C.3     1  UNL1        0.0903
     29 N          14.7318   35.7879    9.5310 N.3     1  UNL1       -0.2599
     30 C          16.1393   35.4278    9.6510 C.3     1  UNL1        0.1408
     31 C          16.9976   36.6370    9.8660 C.ar    1  UNL1        0.1702
     32 C          16.9104   37.5447   10.9103 C.ar    1  UNL1        0.0550
     33 C          17.9178   38.4349   10.5931 C.ar    1  UNL1        0.1008
     34 C          18.2708   39.6432   11.3835 C.3     1  UNL1        0.0557
     35 O          17.9634   36.9874    9.0516 O.2     1  UNL1       -0.3567
     36 N          18.5444   38.0746    9.4593 N.ar    1  UNL1       -0.0817
@<TRIPOS>BOND
     1    25    26    1
     2    23    26    1
     3    23     1    1
     4     1     9   ar
     5     2    12    1
     6     2     3   ar
     7    10    14    1
     8    15    16    1
     9    17    18   ar
    10    18    22    1
    11    19    20   ar
    12    21    16   ar
    13     4     5   ar
    14     6     8   ar
    15    27     6    1
    16    27    29    1
    17    28    29    1
    18    30    29    1
    19    30    31    1
    20    31    35   ar
    21    32    33   ar
    22    34    33    1
    23     7     9   ar
    24     7     3   ar
    25    12    10   am
    26    36    35   ar
    27    23    24    2
    28     1     2   ar
    29    10    11    2
    30    14    15    2
    31    16    17   ar
    32    18    19   ar
    33    20    21   ar
    34     3     4   ar
    35     5     6   ar
    36    31    32   ar
    37    33    36   ar
    38     7     8   ar
    39    12    13    1
@<TRIPOS>MOLECULE
MolPort-005-025-664 14883125 CSSS00160429083 PubChem-26279097 ZINC000014883125 ZINC14883125
 36 39 0 0 0
SMALL
GASTEIGER

@<TRIPOS>ATOM
      1 C          13.1302   41.9924    7.5595 C.ar    1  UNL1        0.1199
      2 C          12.2538   41.5828    8.5831 C.ar    1  UNL1        0.0649
      3 C          12.8911   40.8099    9.5591 C.ar    1  UNL1        0.0380
      4 C          12.3184   40.2621   10.7066 C.ar    1  UNL1        0.0045
      5 C          13.1343   39.5051   11.5613 C.ar    1  UNL1        0.0162
      6 C          14.4921   39.3067   11.2415 C.ar    1  UNL1        0.0757
      7 C          14.2283   40.5901    9.2921 C.ar    1  UNL1        0.1117
      8 N          15.0221   39.8573   10.1103 N.ar    1  UNL1       -0.2417
      9 S          14.6732   41.3569    7.8708 S.2     1  UNL1       -0.0603
     10 C          10.3121   42.9804    9.4052 C.2     1  UNL1        0.2497
     11 O          11.0743   43.8230    9.9498 O.2     1  UNL1       -0.2698
     12 N          10.8566   41.8921    8.6483 N.am    1  UNL1       -0.2798
     13 H          10.2327   41.3226    8.1426 H       1  UNL1        0.1552
     14 C           8.8619   43.1502    9.5261 C.2     1  UNL1        0.0580
     15 C           8.0734   43.2232    8.4563 C.2     1  UNL1        0.0047
     16 C           6.6180   43.4000    8.5530 C.ar    1  UNL1        0.0024
     17 C           5.8352   42.6255    9.4247 C.ar    1  UNL1        0.0296
     18 C           4.4529   42.8240    9.4942 C.ar    1  UNL1        0.1401
     19 C           3.8457   43.7959    8.6943 C.ar    1  UNL1        0.0296
     20 C           4.6202   44.5689    7.8249 C.ar    1  UNL1        0.0023
     21 C           6.0029   44.3706    7.7550 C.ar    1  UNL1        0.0001
     22 F           3.7028   42.0751   10.3372 F       1  UNL1       -0.2042
     23 C          12.8473   42.9137    6.4464 C.2     1  UNL1        0.3487
     24 O          11.8607   42.7152    5.6866 O.2     1  UNL1       -0.2443
     25 C          14.6713   44.0702    5.2654 C.3     1  UNL1        0.2560
     26 O          13.6624   44.0321    6.2629 O.3     1  UNL1       -0.4410
     27 C          15.3733   38.5553   12.1798 C.3     1  UNL1        0.1190
     28 C          14.4987   36.6245   11.2140 C.3     1  UNL1        0.0903
     29 N          15.7395   37.2686   11.6030 N.3     1  UNL1       -0.2599
     30 C          16.4721   37.5327   10.3708 C.3     1  UNL1        0.1408
     31 C          16.7171   36.2722    9.5985 C.ar    1  UNL1        0.1702
     32 C          15.9961   35.8106    8.5081 C.ar    1  UNL1        0.0550
     33 C          16.6475   34.6268    8.2217 C.ar    1  UNL1        0.1008
     34 C          16.2778   33.6908    7.1278 C.3     1  UNL1        0.0557
     35 O          17.6786   35.4284    9.8854 O.2     1  UNL1       -0.3567
     36 N          17.6676   34.4164    9.0721 N.ar    1  UNL1       -0.0817
@<TRIPOS>BOND
     1    25    26    1
     2    23    26    1
     3    23     1    1
     4     1     9   ar
     5     2    12    1
     6     2     3   ar
     7    10    14    1
     8    15    16    1
     9    17    18   ar
    10    18    22    1
    11    19    20   ar
    12    21    16   ar
    13     4     5   ar
    14     6     8   ar
    15    27     6    1
    16    27    29    1
    17    28    29    1
    18    30    29    1
    19    30    31    1
    20    31    35   ar
    21    32    33   ar
    22    34    33    1
    23     7     9   ar
    24     7     3   ar
    25    12    10   am
    26    36    35   ar
    27    23    24    2
    28     1     2   ar
    29    10    11    2
    30    14    15    2
    31    16    17   ar
    32    18    19   ar
    33    20    21   ar
    34     3     4   ar
    35     5     6   ar
    36    31    32   ar
    37    33    36   ar
    38     7     8   ar
    39    12    13    1
@<TRIPOS>MOLECULE
MolPort-005-025-664 14883125 CSSS00160429083 PubChem-26279097 ZINC000014883125 ZINC14883125
 36 39 0 0 0
SMALL
GASTEIGER

@<TRIPOS>ATOM
      1 C          12.1957   41.2630    8.9674 C.ar    1  UNL1        0.1199
      2 C          11.3451   40.1661    9.2056 C.ar    1  UNL1        0.0649
      3 C          12.0331   38.9486    9.2347 C.ar    1  UNL1        0.0380
      4 C          11.4951   37.6820    9.4606 C.ar    1  UNL1        0.0045
      5 C          12.3610   36.5779    9.4409 C.ar    1  UNL1        0.0162
      6 C          13.7337   36.7672    9.1853 C.ar    1  UNL1        0.0757
      7 C          13.3864   39.0822    8.9928 C.ar    1  UNL1        0.1117
      8 N          14.2287   38.0209    8.9685 N.ar    1  UNL1       -0.2417
      9 S          13.7820   40.6938    8.7641 S.2     1  UNL1       -0.0603
     10 C           9.0045   40.6217    8.3610 C.2     1  UNL1        0.2497
     11 O           9.3996   40.7694    7.1737 O.2     1  UNL1       -0.2698
     12 N           9.9268   40.2444    9.3910 N.am    1  UNL1       -0.2798
     13 H           9.5637   40.0259   10.2796 H       1  UNL1        0.1552
     14 C           7.5833   40.8051    8.6659 C.2     1  UNL1        0.0580
     15 C           7.1711   41.6650    9.5945 C.2     1  UNL1        0.0047
     16 C           5.7522   41.8607    9.9219 C.ar    1  UNL1        0.0024
     17 C           5.1799   41.3186   11.0842 C.ar    1  UNL1        0.0296
     18 C           3.8266   41.5288   11.3666 C.ar    1  UNL1        0.1401
     19 C           3.0388   42.2804   10.4907 C.ar    1  UNL1        0.0296
     20 C           3.6035   42.8216    9.3325 C.ar    1  UNL1        0.0023
     21 C           4.9570   42.6115    9.0495 C.ar    1  UNL1        0.0001
     22 F           3.2800   41.0046   12.4894 F       1  UNL1       -0.2042
     23 C          11.8503   42.6939    8.9971 C.2     1  UNL1        0.3487
     24 O          12.1616   43.4473    8.0350 O.2     1  UNL1       -0.2443
     25 C           9.9217   43.9105    9.9241 C.3     1  UNL1        0.2560
     26 O          11.1405   43.2017   10.0867 O.3     1  UNL1       -0.4410
     27 C          14.6634   35.6029    9.2255 C.3     1  UNL1        0.1190
     28 C          16.9586   35.7322    8.8501 C.3     1  UNL1        0.0903
     29 N          15.6710   35.7287    8.1809 N.3     1  UNL1       -0.2599
     30 C          15.6255   34.5125    7.3786 C.3     1  UNL1        0.1408
     31 C          16.2106   33.3472    8.1168 C.ar    1  UNL1        0.1702
     32 C          17.5205   33.2080    8.5485 C.ar    1  UNL1        0.0550
     33 C          17.4893   31.9614    9.1425 C.ar    1  UNL1        0.1008
     34 C          18.6523   31.2877    9.7772 C.3     1  UNL1        0.0557
     35 O          15.5188   32.2828    8.4444 O.2     1  UNL1       -0.3567
     36 N          16.2613   31.4189    9.0675 N.ar    1  UNL1       -0.0817
@<TRIPOS>BOND
     1    25    26    1
     2    23    26    1
     3    23     1    1
     4     1     9   ar
     5     2    12    1
     6     2     3   ar
     7    10    14    1
     8    15    16    1
     9    17    18   ar
    10    18    22    1
    11    19    20   ar
    12    21    16   ar
    13     4     5   ar
    14     6     8   ar
    15    27     6    1
    16    27    29    1
    17    28    29    1
    18    30    29    1
    19    30    31    1
    20    31    35   ar
    21    32    33   ar
    22    34    33    1
    23     7     9   ar
    24     7     3   ar
    25    12    10   am
    26    36    35   ar
    27    23    24    2
    28     1     2   ar
    29    10    11    2
    30    14    15    2
    31    16    17   ar
    32    18    19   ar
    33    20    21   ar
    34     3     4   ar
    35     5     6   ar
    36    31    32   ar
    37    33    36   ar
    38     7     8   ar
    39    12    13    1
@<TRIPOS>MOLECULE
MolPort-005-025-664 14883125 CSSS00160429083 PubChem-26279097 ZINC000014883125 ZINC14883125
 36 39 0 0 0
SMALL
GASTEIGER

@<TRIPOS>ATOM
      1 C          12.1894   41.3196    9.0463 C.ar    1  UNL1        0.1199
      2 C          11.3661   40.1949    9.2482 C.ar    1  UNL1        0.0649
      3 C          12.0846   38.9949    9.2436 C.ar    1  UNL1        0.0380
      4 C          11.5782   37.7089    9.4294 C.ar    1  UNL1        0.0045
      5 C          12.4720   36.6281    9.3802 C.ar    1  UNL1        0.0162
      6 C          13.8402   36.8596    9.1360 C.ar    1  UNL1        0.0757
      7 C          13.4349   39.1698    9.0113 C.ar    1  UNL1        0.1117
      8 N          14.3040   38.1313    8.9588 N.ar    1  UNL1       -0.2417
      9 S          13.7902   40.7970    8.8325 S.2     1  UNL1       -0.0603
     10 C           9.0226   40.6884    8.4334 C.2     1  UNL1        0.2497
     11 O           9.4215   40.9532    7.2680 O.2     1  UNL1       -0.2698
     12 N           9.9456   40.2318    9.4301 N.am    1  UNL1       -0.2798
     13 H           9.5815   39.9249   10.2918 H       1  UNL1        0.1552
     14 C           7.5968   40.8186    8.7441 C.2     1  UNL1        0.0580
     15 C           7.1457   41.7402    9.5919 C.2     1  UNL1        0.0047
     16 C           5.7217   41.8850    9.9237 C.ar    1  UNL1        0.0024
     17 C           5.1710   41.3159   11.0835 C.ar    1  UNL1        0.0296
     18 C           3.8121   41.4776   11.3703 C.ar    1  UNL1        0.1401
     19 C           2.9969   42.2077   10.5013 C.ar    1  UNL1        0.0296
     20 C           3.5399   42.7757    9.3456 C.ar    1  UNL1        0.0023
     21 C           4.8991   42.6141    9.0582 C.ar    1  UNL1        0.0001
     22 F           3.2864   40.9275   12.4907 F       1  UNL1       -0.2042
     23 C          11.8077   42.7398    9.1174 C.2     1  UNL1        0.3487
     24 O          12.1712   43.5458    8.2183 O.2     1  UNL1       -0.2443
     25 C           9.9205   44.0701    9.9707 C.3     1  UNL1        0.2560
     26 O          11.0063   43.1786   10.1729 O.3     1  UNL1       -0.4410
     27 C          14.7991   35.7185    9.1451 C.3     1  UNL1        0.1190
     28 C          17.1109   35.9704    9.0129 C.3     1  UNL1        0.0903
     29 N          15.8951   35.9763    8.2208 N.3     1  UNL1       -0.2599
     30 C          15.9848   34.8357    7.3175 C.3     1  UNL1        0.1408
     31 C          16.1939   35.2746    5.9002 C.ar    1  UNL1        0.1702
     32 C          17.3790   35.7146    5.3312 C.ar    1  UNL1        0.0550
     33 C          16.9841   35.9879    4.0362 C.ar    1  UNL1        0.1008
     34 C          17.8707   36.5132    2.9650 C.3     1  UNL1        0.0557
     35 O          15.2358   35.2969    5.0055 O.2     1  UNL1       -0.3567
     36 N          15.6769   35.7253    3.8619 N.ar    1  UNL1       -0.0817
@<TRIPOS>BOND
     1    25    26    1
     2    23    26    1
     3    23     1    1
     4     1     9   ar
     5     2    12    1
     6     2     3   ar
     7    10    14    1
     8    15    16    1
     9    17    18   ar
    10    18    22    1
    11    19    20   ar
    12    21    16   ar
    13     4     5   ar
    14     6     8   ar
    15    27     6    1
    16    27    29    1
    17    28    29    1
    18    30    29    1
    19    30    31    1
    20    31    35   ar
    21    32    33   ar
    22    34    33    1
    23     7     9   ar
    24     7     3   ar
    25    12    10   am
    26    36    35   ar
    27    23    24    2
    28     1     2   ar
    29    10    11    2
    30    14    15    2
    31    16    17   ar
    32    18    19   ar
    33    20    21   ar
    34     3     4   ar
    35     5     6   ar
    36    31    32   ar
    37    33    36   ar
    38     7     8   ar
    39    12    13    1
@<TRIPOS>MOLECULE
MolPort-005-025-664 14883125 CSSS00160429083 PubChem-26279097 ZINC000014883125 ZINC14883125
 36 39 0 0 0
SMALL
GASTEIGER

@<TRIPOS>ATOM
      1 C           7.8377   41.7181   11.6652 C.ar    1  UNL1        0.1199
      2 C           6.6330   41.6923   10.9361 C.ar    1  UNL1        0.0649
      3 C           6.7874   41.1358    9.6622 C.ar    1  UNL1        0.0380
      4 C           5.7969   40.9493    8.6985 C.ar    1  UNL1        0.0045
      5 C           6.1622   40.3760    7.4708 C.ar    1  UNL1        0.0162
      6 C           7.5043   40.0170    7.2358 C.ar    1  UNL1        0.0757
      7 C           8.0883   40.7633    9.3849 C.ar    1  UNL1        0.1117
      8 N           8.4500   40.2125    8.2007 N.ar    1  UNL1       -0.2417
      9 S           9.0783   41.0792   10.6987 S.2     1  UNL1       -0.0603
     10 C           4.2232   41.3533   11.6273 C.2     1  UNL1        0.2497
     11 O           4.3173   40.0992   11.5504 O.2     1  UNL1       -0.2698
     12 N           5.3714   42.1820   11.4058 N.am    1  UNL1       -0.2798
     13 H           5.2880   43.1460   11.5875 H       1  UNL1        0.1552
     14 C           2.9330   41.9496   11.9823 C.2     1  UNL1        0.0580
     15 C           2.3313   41.6808   13.1387 C.2     1  UNL1        0.0047
     16 C           1.0346   42.2615   13.5132 C.ar    1  UNL1        0.0024
     17 C          -0.1204   41.4726   13.6386 C.ar    1  UNL1        0.0296
     18 C          -1.3373   42.0583   14.0013 C.ar    1  UNL1        0.1401
     19 C          -1.4068   43.4334   14.2402 C.ar    1  UNL1        0.0296
     20 C          -0.2603   44.2229   14.1162 C.ar    1  UNL1        0.0023
     21 C           0.9570   43.6376   13.7534 C.ar    1  UNL1        0.0001
     22 F          -2.4479   41.2927   14.1219 F       1  UNL1       -0.2042
     23 C           8.0312   42.1082   13.0717 C.2     1  UNL1        0.3487
     24 O           7.8309   43.2978   13.4391 O.2     1  UNL1       -0.2443
     25 C           9.7157   41.0772   14.5408 C.3     1  UNL1        0.2560
     26 O           8.4035   41.1376   14.0036 O.3     1  UNL1       -0.4410
     27 C           7.8813   39.3517    5.9564 C.3     1  UNL1        0.1190
     28 C           9.6732   38.4417    4.7788 C.3     1  UNL1        0.0903
     29 N           9.3142   39.4798    5.7271 N.3     1  UNL1       -0.2599
     30 C           9.5386   40.7520    5.0518 C.3     1  UNL1        0.1408
     31 C           8.5038   41.7656    5.4351 C.ar    1  UNL1        0.1702
     32 C           8.6363   42.7760    6.3750 C.ar    1  UNL1        0.0550
     33 C           7.3940   43.3771    6.3178 C.ar    1  UNL1        0.1008
     34 C           6.9666   44.5365    7.1439 C.3     1  UNL1        0.0557
     35 O           7.3055   41.8059    4.9046 O.2     1  UNL1       -0.3567
     36 N           6.6025   42.7703    5.4160 N.ar    1  UNL1       -0.0817
@<TRIPOS>BOND
     1    25    26    1
     2    23    26    1
     3    23     1    1
     4     1     9   ar
     5     2    12    1
     6     2     3   ar
     7    10    14    1
     8    15    16    1
     9    17    18   ar
    10    18    22    1
    11    19    20   ar
    12    21    16   ar
    13     4     5   ar
    14     6     8   ar
    15    27     6    1
    16    27    29    1
    17    28    29    1
    18    30    29    1
    19    30    31    1
    20    31    35   ar
    21    32    33   ar
    22    34    33    1
    23     7     9   ar
    24     7     3   ar
    25    12    10   am
    26    36    35   ar
    27    23    24    2
    28     1     2   ar
    29    10    11    2
    30    14    15    2
    31    16    17   ar
    32    18    19   ar
    33    20    21   ar
    34     3     4   ar
    35     5     6   ar
    36    31    32   ar
    37    33    36   ar
    38     7     8   ar
    39    12    13    1
@<TRIPOS>MOLECULE
MolPort-005-025-664 14883125 CSSS00160429083 PubChem-26279097 ZINC000014883125 ZINC14883125
 36 39 0 0 0
SMALL
GASTEIGER

@<TRIPOS>ATOM
      1 C          11.0156   40.9268    6.6429 C.ar    1  UNL1        0.1199
      2 C          10.6872   40.7624    8.0026 C.ar    1  UNL1        0.0649
      3 C          11.8068   40.4967    8.7977 C.ar    1  UNL1        0.0380
      4 C          11.8321   40.2984   10.1778 C.ar    1  UNL1        0.0045
      5 C          13.0671   40.0345   10.7898 C.ar    1  UNL1        0.0162
      6 C          14.2370   39.9645   10.0076 C.ar    1  UNL1        0.0757
      7 C          12.9819   40.4219    8.0757 C.ar    1  UNL1        0.1117
      8 N          14.1779   40.1640    8.6584 N.ar    1  UNL1       -0.2417
      9 S          12.6876   40.7052    6.4512 S.2     1  UNL1       -0.0603
     10 C           8.8250   42.0091    9.1763 C.2     1  UNL1        0.2497
     11 O           9.4583   43.0981    9.1482 O.2     1  UNL1       -0.2698
     12 N           9.3653   40.8392    8.5492 N.am    1  UNL1       -0.2798
     13 H           8.7934   40.0399    8.4905 H       1  UNL1        0.1552
     14 C           7.5130   41.9657    9.8268 C.2     1  UNL1        0.0580
     15 C           6.4000   41.7101    9.1431 C.2     1  UNL1        0.0047
     16 C           5.0731   41.6681    9.7727 C.ar    1  UNL1        0.0024
     17 C           3.9179   41.3453    9.0422 C.ar    1  UNL1        0.0296
     18 C           2.6715   41.3104    9.6750 C.ar    1  UNL1        0.1401
     19 C           2.5724   41.5974   11.0391 C.ar    1  UNL1        0.0296
     20 C           3.7190   41.9195   11.7704 C.ar    1  UNL1        0.0023
     21 C           4.9659   41.9548   11.1378 C.ar    1  UNL1        0.0001
     22 F           1.5608   40.9975    8.9661 F       1  UNL1       -0.2042
     23 C          10.1259   41.3400    5.5449 C.2     1  UNL1        0.3487
     24 O           9.2589   42.2373    5.7272 O.2     1  UNL1       -0.2443
     25 C           9.8955   39.4099    4.0347 C.3     1  UNL1        0.2560
     26 O          10.2771   40.7535    4.2872 O.3     1  UNL1       -0.4410
     27 C          15.5569   39.7457   10.6646 C.3     1  UNL1        0.1190
     28 C          17.7637   39.9446    9.9464 C.3     1  UNL1        0.0903
     29 N          16.5210   39.2379    9.6978 N.3     1  UNL1       -0.2599
     30 C          16.7699   37.8382   10.0200 C.3     1  UNL1        0.1408
     31 C          15.5116   37.1402   10.4381 C.ar    1  UNL1        0.1702
     32 C          14.5570   36.5759    9.6063 C.ar    1  UNL1        0.0550
     33 C          13.6370   36.0976   10.5188 C.ar    1  UNL1        0.1008
     34 C          12.3744   35.3946   10.1712 C.3     1  UNL1        0.0557
     35 O          15.1576   36.9852   11.6909 O.2     1  UNL1       -0.3567
     36 N          14.0244   36.3576   11.7799 N.ar    1  UNL1       -0.0817
@<TRIPOS>BOND
     1    25    26    1
     2    23    26    1
     3    23     1    1
     4     1     9   ar
     5     2    12    1
     6     2     3   ar
     7    10    14    1
     8    15    16    1
     9    17    18   ar
    10    18    22    1
    11    19    20   ar
    12    21    16   ar
    13     4     5   ar
    14     6     8   ar
    15    27     6    1
    16    27    29    1
    17    28    29    1
    18    30    29    1
    19    30    31    1
    20    31    35   ar
    21    32    33   ar
    22    34    33    1
    23     7     9   ar
    24     7     3   ar
    25    12    10   am
    26    36    35   ar
    27    23    24    2
    28     1     2   ar
    29    10    11    2
    30    14    15    2
    31    16    17   ar
    32    18    19   ar
    33    20    21   ar
    34     3     4   ar
    35     5     6   ar
    36    31    32   ar
    37    33    36   ar
    38     7     8   ar
    39    12    13    1
@<TRIPOS>MOLECULE
MolPort-005-025-664 14883125 CSSS00160429083 PubChem-26279097 ZINC000014883125 ZINC14883125
 36 39 0 0 0
SMALL
GASTEIGER

@<TRIPOS>ATOM
      1 C           7.8189   41.8651   11.4688 C.ar    1  UNL1        0.1199
      2 C           6.6322   41.4184   10.8559 C.ar    1  UNL1        0.0649
      3 C           6.7689   41.2571    9.4733 C.ar    1  UNL1        0.0380
      4 C           5.7961   40.8176    8.5760 C.ar    1  UNL1        0.0045
      5 C           6.1344   40.7319    7.2168 C.ar    1  UNL1        0.0162
      6 C           7.4268   41.0974    6.7910 C.ar    1  UNL1        0.0757
      7 C           8.0229   41.5999    9.0067 C.ar    1  UNL1        0.1117
      8 N           8.3565   41.5234    7.6954 N.ar    1  UNL1       -0.2417
      9 S           9.0053   42.0830   10.2745 S.2     1  UNL1       -0.0603
     10 C           4.2266   41.9736   11.4076 C.2     1  UNL1        0.2497
     11 O           4.1860   42.9035   10.5583 O.2     1  UNL1       -0.2698
     12 N           5.3980   41.1579   11.5351 N.am    1  UNL1       -0.2798
     13 H           5.3518   40.3711   12.1250 H       1  UNL1        0.1552
     14 C           3.0465   41.7151   12.2364 C.2     1  UNL1        0.0580
     15 C           2.0931   42.6289   12.4026 C.2     1  UNL1        0.0047
     16 C           0.9047   42.3945   13.2342 C.ar    1  UNL1        0.0024
     17 C           0.9324   42.5636   14.6281 C.ar    1  UNL1        0.0296
     18 C          -0.2191   42.3360   15.3881 C.ar    1  UNL1        0.1401
     19 C          -1.4029   41.9387   14.7606 C.ar    1  UNL1        0.0296
     20 C          -1.4355   41.7687   13.3738 C.ar    1  UNL1        0.0023
     21 C          -0.2840   41.9960   12.6133 C.ar    1  UNL1        0.0001
     22 F          -0.1871   42.5016   16.7319 F       1  UNL1       -0.2042
     23 C           8.0860   42.0206   12.9083 C.2     1  UNL1        0.3487
     24 O           7.9655   43.1465   13.4634 O.2     1  UNL1       -0.2443
     25 C           9.4835   40.9384   14.6214 C.3     1  UNL1        0.2560
     26 O           8.4387   40.8995   13.6616 O.3     1  UNL1       -0.4410
     27 C           7.8058   40.9479    5.3573 C.3     1  UNL1        0.1190
     28 C           9.6967   41.7695    6.4412 C.3     1  UNL1        0.0903
     29 N           9.2251   41.2250    5.1815 N.3     1  UNL1       -0.2599
     30 C           9.9031   39.9469    5.0040 C.3     1  UNL1        0.1408
     31 C           9.9118   39.1506    6.2732 C.ar    1  UNL1        0.1702
     32 C          10.8722   39.1872    7.2724 C.ar    1  UNL1        0.0550
     33 C          10.3789   38.2604    8.1698 C.ar    1  UNL1        0.1008
     34 C          11.0306   37.8798    9.4504 C.3     1  UNL1        0.0557
     35 O           8.9742   38.2903    6.5889 O.2     1  UNL1       -0.3567
     36 N           9.2235   37.7291    7.7329 N.ar    1  UNL1       -0.0817
@<TRIPOS>BOND
     1    25    26    1
     2    23    26    1
     3    23     1    1
     4     1     9   ar
     5     2    12    1
     6     2     3   ar
     7    10    14    1
     8    15    16    1
     9    17    18   ar
    10    18    22    1
    11    19    20   ar
    12    21    16   ar
    13     4     5   ar
    14     6     8   ar
    15    27     6    1
    16    27    29    1
    17    28    29    1
    18    30    29    1
    19    30    31    1
    20    31    35   ar
    21    32    33   ar
    22    34    33    1
    23     7     9   ar
    24     7     3   ar
    25    12    10   am
    26    36    35   ar
    27    23    24    2
    28     1     2   ar
    29    10    11    2
    30    14    15    2
    31    16    17   ar
    32    18    19   ar
    33    20    21   ar
    34     3     4   ar
    35     5     6   ar
    36    31    32   ar
    37    33    36   ar
    38     7     8   ar
    39    12    13    1
@<TRIPOS>MOLECULE
MolPort-005-025-664 14883125 CSSS00160429083 PubChem-26279097 ZINC000014883125 ZINC14883125
 36 39 0 0 0
SMALL
GASTEIGER

@<TRIPOS>ATOM
      1 C          13.1598   41.7754    7.6441 C.ar    1  UNL1        0.1199
      2 C          12.5960   41.1166    8.7540 C.ar    1  UNL1        0.0649
      3 C          13.5517   40.4440    9.5225 C.ar    1  UNL1        0.0380
      4 C          13.3314   39.7104   10.6878 C.ar    1  UNL1        0.0045
      5 C          14.4324   39.1009   11.3087 C.ar    1  UNL1        0.0162
      6 C          15.7169   39.2306   10.7442 C.ar    1  UNL1        0.0757
      7 C          14.8307   40.5448    9.0109 C.ar    1  UNL1        0.1117
      8 N          15.8986   39.9564    9.6023 N.ar    1  UNL1       -0.2417
      9 S          14.8313   41.4806    7.6215 S.2     1  UNL1       -0.0603
     10 C          10.5240   42.1846    9.7368 C.2     1  UNL1        0.2497
     11 O          11.1091   43.2849    9.9224 O.2     1  UNL1       -0.2698
     12 N          11.2028   41.1023    9.0872 N.am    1  UNL1       -0.2798
     13 H          10.6801   40.3007    8.8560 H       1  UNL1        0.1552
     14 C           9.1293   42.0399   10.1613 C.2     1  UNL1        0.0580
     15 C           8.1176   42.4251    9.3869 C.2     1  UNL1        0.0047
     16 C           6.7119   42.2961    9.7942 C.ar    1  UNL1        0.0024
     17 C           5.6783   42.9465    9.1006 C.ar    1  UNL1        0.0296
     18 C           4.3507   42.7976    9.5136 C.ar    1  UNL1        0.1401
     19 C           4.0487   41.9993   10.6201 C.ar    1  UNL1        0.0296
     20 C           5.0737   41.3503   11.3140 C.ar    1  UNL1        0.0023
     21 C           6.4018   41.4990   10.9014 C.ar    1  UNL1        0.0001
     22 F           3.3577   43.4262    8.8405 F       1  UNL1       -0.2042
     23 C          12.4878   42.6798    6.6964 C.2     1  UNL1        0.3487
     24 O          11.3712   42.3702    6.1988 O.2     1  UNL1       -0.2443
     25 C          14.2201   43.9893    5.5375 C.3     1  UNL1        0.2560
     26 O          13.0828   43.9029    6.3822 O.3     1  UNL1       -0.4410
     27 C          16.8952   38.6357   11.4364 C.3     1  UNL1        0.1190
     28 C          19.1589   38.8595   10.9351 C.3     1  UNL1        0.0903
     29 N          17.9179   38.2726   10.4646 N.3     1  UNL1       -0.2599
     30 C          18.0931   36.8270   10.5312 C.3     1  UNL1        0.1408
     31 C          17.6978   36.1675    9.2451 C.ar    1  UNL1        0.1702
     32 C          18.1243   34.9345    8.7765 C.ar    1  UNL1        0.0550
     33 C          17.4613   34.8490    7.5678 C.ar    1  UNL1        0.1008
     34 C          17.5640   33.7128    6.6151 C.3     1  UNL1        0.0557
     35 O          16.8739   36.7107    8.3820 O.2     1  UNL1       -0.3567
     36 N          16.7065   35.9403    7.3503 N.ar    1  UNL1       -0.0817
@<TRIPOS>BOND
     1    25    26    1
     2    23    26    1
     3    23     1    1
     4     1     9   ar
     5     2    12    1
     6     2     3   ar
     7    10    14    1
     8    15    16    1
     9    17    18   ar
    10    18    22    1
    11    19    20   ar
    12    21    16   ar
    13     4     5   ar
    14     6     8   ar
    15    27     6    1
    16    27    29    1
    17    28    29    1
    18    30    29    1
    19    30    31    1
    20    31    35   ar
    21    32    33   ar
    22    34    33    1
    23     7     9   ar
    24     7     3   ar
    25    12    10   am
    26    36    35   ar
    27    23    24    2
    28     1     2   ar
    29    10    11    2
    30    14    15    2
    31    16    17   ar
    32    18    19   ar
    33    20    21   ar
    34     3     4   ar
    35     5     6   ar
    36    31    32   ar
    37    33    36   ar
    38     7     8   ar
    39    12    13    1
