@<TRIPOS>MOLECULE
MolPort-010-714-222 ChemDiv-D481-2665 MCULE-5981365152 PubChem-50751107 ZINC000033320748 ZINC33320748
 36 40 0 0 0
SMALL
GASTEIGER

@<TRIPOS>ATOM
      1 C          11.2548   42.0868    9.0708 C.ar    1  UNL1        0.1706
      2 C           9.3753   42.7973    8.3855 C.ar    1  UNL1        0.1975
      3 N          10.8048   42.9893    9.9725 N.ar    1  UNL1       -0.1279
      4 N           9.6366   43.4371    9.5348 N.ar    1  UNL1       -0.1218
      5 N          10.3704   41.9431    8.0560 N.ar    1  UNL1       -0.2690
      6 C          14.9142   39.9142    9.6602 C.ar    1  UNL1        0.0503
      7 C          14.8065   40.8232    8.6017 C.ar    1  UNL1        0.0148
      8 C          13.6211   41.5316    8.3956 C.ar    1  UNL1        0.0043
      9 C          12.5255   41.3471    9.2507 C.ar    1  UNL1        0.0364
     10 C          12.6369   40.4284   10.3038 C.ar    1  UNL1        0.0043
     11 C          13.8210   39.7187   10.5073 C.ar    1  UNL1        0.0148
     12 C          17.9245   37.9014   11.0750 C.3     1  UNL1        0.0949
     13 C          16.5823   38.5390   11.0420 C.2     1  UNL1        0.2266
     14 O          15.8356   38.4622   12.0576 O.2     1  UNL1       -0.2748
     15 N          16.1541   39.2151    9.8523 N.am    1  UNL1       -0.2839
     16 H          16.7742   39.1984    9.0879 H       1  UNL1        0.1549
     17 C          10.4304   41.0860    6.9120 C.ar    1  UNL1        0.0672
     18 C          10.0335   39.7480    7.0199 C.ar    1  UNL1        0.0176
     19 C          10.1228   38.8988    5.9210 C.ar    1  UNL1        0.0015
     20 C          10.6052   39.3834    4.6994 C.ar    1  UNL1        0.0001
     21 C          10.9939   40.7192    4.5867 C.ar    1  UNL1        0.0015
     22 C          10.9065   41.5712    5.6928 C.ar    1  UNL1        0.0176
     23 S           7.9966   43.2113    7.3213 S.3     1  UNL1       -0.0655
     24 C           7.2540   41.5612    7.4171 C.3     1  UNL1        0.1501
     25 C           6.9858   41.1744    8.8335 C.2     1  UNL1        0.2373
     26 C           4.6751   42.1517    8.6667 C.3     1  UNL1        0.0984
     27 C           3.9241   43.1272    9.5640 C.3     1  UNL1        0.0476
     28 C           3.3751   42.3948   10.7444 C.ar    1  UNL1       -0.0228
     29 C           2.1279   42.7625   11.2738 C.ar    1  UNL1       -0.0045
     30 C           1.6007   42.0788   12.3723 C.ar    1  UNL1       -0.0003
     31 C           2.3247   41.0347   12.9474 C.ar    1  UNL1       -0.0003
     32 C           3.5686   40.6625   12.4179 C.ar    1  UNL1       -0.0029
     33 C           4.0966   41.3369   11.3166 C.ar    1  UNL1       -0.0062
     34 C           5.4434   40.9228   10.7776 C.3     1  UNL1        0.1198
     35 O           7.8611   40.5220    9.4750 O.2     1  UNL1       -0.2739
     36 N           5.7185   41.4693    9.4409 N.am    1  UNL1       -0.2744
@<TRIPOS>BOND
     1    12    13    1
     2    13    15   am
     3     7     8   ar
     4     9    10   ar
     5     9     1    1
     6    11     6   ar
     7     2    23    1
     8     2     5   ar
     9    24    23    1
    10    24    25    1
    11    25    36   am
    12    26    36    1
    13    26    27    1
    14    27    28    1
    15    29    30   ar
    16    31    32   ar
    17    33    28   ar
    18    34    33    1
    19    34    36    1
    20    18    19   ar
    21    20    21   ar
    22    22    17   ar
    23    15     6    1
    24     3     4   ar
    25     5    17    1
    26     5     1   ar
    27    13    14    2
    28     6     7   ar
    29     8     9   ar
    30    10    11   ar
    31     1     3   ar
    32     2     4   ar
    33    25    35    2
    34    28    29   ar
    35    30    31   ar
    36    32    33   ar
    37    17    18   ar
    38    19    20   ar
    39    21    22   ar
    40    15    16    1
@<TRIPOS>MOLECULE
MolPort-010-714-222 ChemDiv-D481-2665 MCULE-5981365152 PubChem-50751107 ZINC000033320748 ZINC33320748
 36 40 0 0 0
SMALL
GASTEIGER

@<TRIPOS>ATOM
      1 C           7.7099   40.8642    7.0058 C.ar    1  UNL1        0.1706
      2 C           9.2821   40.2674    5.7101 C.ar    1  UNL1        0.1975
      3 N           7.3821   41.2609    5.7547 N.ar    1  UNL1       -0.1279
      4 N           8.3713   40.8951    4.9518 N.ar    1  UNL1       -0.1218
      5 N           8.9066   40.2312    7.0086 N.ar    1  UNL1       -0.2690
      6 C           5.1763   41.4901   10.4187 C.ar    1  UNL1        0.0503
      7 C           4.6435   40.9412    9.2469 C.ar    1  UNL1        0.0148
      8 C           5.4545   40.7379    8.1287 C.ar    1  UNL1        0.0043
      9 C           6.8152   41.0738    8.1676 C.ar    1  UNL1        0.0364
     10 C           7.3406   41.6316    9.3415 C.ar    1  UNL1        0.0043
     11 C           6.5287   41.8371   10.4575 C.ar    1  UNL1        0.0148
     12 C           2.1968   42.1938   12.8149 C.3     1  UNL1        0.0949
     13 C           2.9226   42.0047   11.5317 C.2     1  UNL1        0.2266
     14 O           2.2958   42.1278   10.4422 O.2     1  UNL1       -0.2748
     15 N           4.3166   41.6700   11.5551 N.am    1  UNL1       -0.2839
     16 H           4.7270   41.5512   12.4421 H       1  UNL1        0.1549
     17 C           9.6169   39.6342    8.0975 C.ar    1  UNL1        0.0672
     18 C          10.1549   40.4411    9.1069 C.ar    1  UNL1        0.0176
     19 C          10.8779   39.8710   10.1505 C.ar    1  UNL1        0.0015
     20 C          11.0643   38.4843   10.1971 C.ar    1  UNL1        0.0001
     21 C          10.5220   37.6764    9.1963 C.ar    1  UNL1        0.0015
     22 C           9.7979   38.2509    8.1462 C.ar    1  UNL1        0.0176
     23 S          10.8884   39.7631    5.1018 S.3     1  UNL1       -0.0655
     24 C          11.7738   40.3289    6.5781 C.3     1  UNL1        0.1501
     25 C          12.4500   41.6363    6.3306 C.2     1  UNL1        0.2373
     26 C          14.4789   40.8267    7.5758 C.3     1  UNL1        0.0984
     27 C          15.2919   41.4565    8.6997 C.3     1  UNL1        0.0476
     28 C          16.2240   42.4744    8.1285 C.ar    1  UNL1       -0.0228
     29 C          17.5014   42.6399    8.6869 C.ar    1  UNL1       -0.0045
     30 C          18.3848   43.5829    8.1552 C.ar    1  UNL1       -0.0003
     31 C          17.9875   44.3668    7.0724 C.ar    1  UNL1       -0.0003
     32 C          16.7138   44.2005    6.5100 C.ar    1  UNL1       -0.0029
     33 C          15.8302   43.2554    7.0321 C.ar    1  UNL1       -0.0062
     34 C          14.4617   43.1086    6.4145 C.3     1  UNL1        0.1198
     35 O          11.8704   42.5102    5.6211 O.2     1  UNL1       -0.2739
     36 N          13.7770   41.8743    6.8250 N.am    1  UNL1       -0.2744
@<TRIPOS>BOND
     1    12    13    1
     2    13    15   am
     3     7     8   ar
     4     9    10   ar
     5     9     1    1
     6    11     6   ar
     7     2    23    1
     8     2     5   ar
     9    24    23    1
    10    24    25    1
    11    25    36   am
    12    26    36    1
    13    26    27    1
    14    27    28    1
    15    29    30   ar
    16    31    32   ar
    17    33    28   ar
    18    34    33    1
    19    34    36    1
    20    18    19   ar
    21    20    21   ar
    22    22    17   ar
    23    15     6    1
    24     3     4   ar
    25     5    17    1
    26     5     1   ar
    27    13    14    2
    28     6     7   ar
    29     8     9   ar
    30    10    11   ar
    31     1     3   ar
    32     2     4   ar
    33    25    35    2
    34    28    29   ar
    35    30    31   ar
    36    32    33   ar
    37    17    18   ar
    38    19    20   ar
    39    21    22   ar
    40    15    16    1
@<TRIPOS>MOLECULE
MolPort-010-714-222 ChemDiv-D481-2665 MCULE-5981365152 PubChem-50751107 ZINC000033320748 ZINC33320748
 36 40 0 0 0
SMALL
GASTEIGER

@<TRIPOS>ATOM
      1 C           5.8452   41.1225    8.2915 C.ar    1  UNL1        0.1706
      2 C           7.3865   41.3326    6.8468 C.ar    1  UNL1        0.1975
      3 N           5.5912   40.2472    7.2917 N.ar    1  UNL1       -0.1279
      4 N           6.5504   40.3899    6.3880 N.ar    1  UNL1       -0.1218
      5 N           6.9760   41.8224    8.0385 N.ar    1  UNL1       -0.2690
      6 C           3.3293   41.4457   11.7592 C.ar    1  UNL1        0.0503
      7 C           4.5904   40.8486   11.8667 C.ar    1  UNL1        0.0148
      8 C           5.4157   40.7322   10.7464 C.ar    1  UNL1        0.0043
      9 C           4.9949   41.2186    9.5006 C.ar    1  UNL1        0.0364
     10 C           3.7268   41.8075    9.3979 C.ar    1  UNL1        0.0043
     11 C           2.9016   41.9208   10.5174 C.ar    1  UNL1        0.0148
     12 C           0.5952   42.3415   14.3739 C.3     1  UNL1        0.0949
     13 C           1.2869   42.2949   13.0591 C.2     1  UNL1        0.2266
     14 O           0.7747   42.8886   12.0692 O.2     1  UNL1       -0.2748
     15 N           2.5138   41.5635   12.9356 N.am    1  UNL1       -0.2839
     16 H           2.8300   41.0931   13.7406 H       1  UNL1        0.1549
     17 C           7.6217   42.8241    8.8301 C.ar    1  UNL1        0.0672
     18 C           7.4467   44.1783    8.5220 C.ar    1  UNL1        0.0176
     19 C           8.0999   45.1571    9.2649 C.ar    1  UNL1        0.0015
     20 C           8.9312   44.7893   10.3295 C.ar    1  UNL1        0.0001
     21 C           9.1011   43.4401   10.6442 C.ar    1  UNL1        0.0015
     22 C           8.4463   42.4568    9.8949 C.ar    1  UNL1        0.0176
     23 S           8.7324   42.0084    5.8791 S.3     1  UNL1       -0.0655
     24 C           9.9612   41.7977    7.1941 C.3     1  UNL1        0.1501
     25 C          10.4437   40.3866    7.2572 C.2     1  UNL1        0.2373
     26 C          11.6383   40.8875    9.4122 C.3     1  UNL1        0.0984
     27 C          13.0703   40.6211    9.8585 C.3     1  UNL1        0.0476
     28 C          13.2013   39.1948   10.2825 C.ar    1  UNL1       -0.0228
     29 C          14.0407   38.8621   11.3576 C.ar    1  UNL1       -0.0045
     30 C          14.1642   37.5324   11.7683 C.ar    1  UNL1       -0.0003
     31 C          13.4569   36.5347   11.0982 C.ar    1  UNL1       -0.0003
     32 C          12.6144   36.8647   10.0269 C.ar    1  UNL1       -0.0029
     33 C          12.4816   38.1917    9.6170 C.ar    1  UNL1       -0.0062
     34 C          11.5783   38.5144    8.4526 C.3     1  UNL1        0.1198
     35 O          10.0630   39.5607    6.3761 O.2     1  UNL1       -0.2739
     36 N          11.2682   39.9475    8.3477 N.am    1  UNL1       -0.2744
@<TRIPOS>BOND
     1    12    13    1
     2    13    15   am
     3     7     8   ar
     4     9    10   ar
     5     9     1    1
     6    11     6   ar
     7     2    23    1
     8     2     5   ar
     9    24    23    1
    10    24    25    1
    11    25    36   am
    12    26    36    1
    13    26    27    1
    14    27    28    1
    15    29    30   ar
    16    31    32   ar
    17    33    28   ar
    18    34    33    1
    19    34    36    1
    20    18    19   ar
    21    20    21   ar
    22    22    17   ar
    23    15     6    1
    24     3     4   ar
    25     5    17    1
    26     5     1   ar
    27    13    14    2
    28     6     7   ar
    29     8     9   ar
    30    10    11   ar
    31     1     3   ar
    32     2     4   ar
    33    25    35    2
    34    28    29   ar
    35    30    31   ar
    36    32    33   ar
    37    17    18   ar
    38    19    20   ar
    39    21    22   ar
    40    15    16    1
@<TRIPOS>MOLECULE
MolPort-010-714-222 ChemDiv-D481-2665 MCULE-5981365152 PubChem-50751107 ZINC000033320748 ZINC33320748
 36 40 0 0 0
SMALL
GASTEIGER

@<TRIPOS>ATOM
      1 C           6.5783   41.0421    7.9135 C.ar    1  UNL1        0.1706
      2 C           8.2354   41.1024    6.5878 C.ar    1  UNL1        0.1975
      3 N           6.2357   40.3568    6.7986 N.ar    1  UNL1       -0.1279
      4 N           7.2695   40.4063    5.9705 N.ar    1  UNL1       -0.1218
      5 N           7.8390   41.5245    7.8097 N.ar    1  UNL1       -0.2690
      6 C           4.0177   41.4049   11.3443 C.ar    1  UNL1        0.0503
      7 C           3.4601   41.1967   10.0777 C.ar    1  UNL1        0.0148
      8 C           4.2806   41.0827    8.9538 C.ar    1  UNL1        0.0043
      9 C           5.6743   41.1678    9.0802 C.ar    1  UNL1        0.0364
     10 C           6.2260   41.3854   10.3505 C.ar    1  UNL1        0.0043
     11 C           5.4051   41.5021   11.4728 C.ar    1  UNL1        0.0148
     12 C           1.0839   42.1270   13.7909 C.3     1  UNL1        0.0949
     13 C           1.8312   42.0756   12.5071 C.2     1  UNL1        0.2266
     14 O           1.2910   42.5259   11.4582 O.2     1  UNL1       -0.2748
     15 N           3.1445   41.5009   12.4806 N.am    1  UNL1       -0.2839
     16 H           3.4828   41.1342   13.3293 H       1  UNL1        0.1549
     17 C           8.6049   42.2781    8.7544 C.ar    1  UNL1        0.0672
     18 C           9.5736   41.6388    9.5370 C.ar    1  UNL1        0.0176
     19 C          10.2976   42.3578   10.4834 C.ar    1  UNL1        0.0015
     20 C          10.0629   43.7277   10.6513 C.ar    1  UNL1        0.0001
     21 C           9.1033   44.3694    9.8666 C.ar    1  UNL1        0.0015
     22 C           8.3741   43.6450    8.9176 C.ar    1  UNL1        0.0176
     23 S           9.7555   41.6001    5.7839 S.3     1  UNL1       -0.0655
     24 C          10.7271   40.2389    6.4813 C.3     1  UNL1        0.1501
     25 C          12.0626   40.7158    6.9467 C.2     1  UNL1        0.2373
     26 C          12.0136   39.0378    8.8186 C.3     1  UNL1        0.0984
     27 C          12.2589   39.1864   10.3147 C.3     1  UNL1        0.0476
     28 C          13.7291   39.2228   10.5760 C.ar    1  UNL1       -0.0228
     29 C          14.2458   38.6209   11.7344 C.ar    1  UNL1       -0.0045
     30 C          15.6202   38.6413   11.9845 C.ar    1  UNL1       -0.0003
     31 C          16.4765   39.2717   11.0822 C.ar    1  UNL1       -0.0003
     32 C          15.9636   39.8698    9.9222 C.ar    1  UNL1       -0.0029
     33 C          14.5928   39.8463    9.6636 C.ar    1  UNL1       -0.0062
     34 C          14.0691   40.5100    8.4142 C.3     1  UNL1        0.1198
     35 O          12.6726   41.6017    6.2786 O.2     1  UNL1       -0.2739
     36 N          12.6870   40.1231    8.0959 N.am    1  UNL1       -0.2744
@<TRIPOS>BOND
     1    12    13    1
     2    13    15   am
     3     7     8   ar
     4     9    10   ar
     5     9     1    1
     6    11     6   ar
     7     2    23    1
     8     2     5   ar
     9    24    23    1
    10    24    25    1
    11    25    36   am
    12    26    36    1
    13    26    27    1
    14    27    28    1
    15    29    30   ar
    16    31    32   ar
    17    33    28   ar
    18    34    33    1
    19    34    36    1
    20    18    19   ar
    21    20    21   ar
    22    22    17   ar
    23    15     6    1
    24     3     4   ar
    25     5    17    1
    26     5     1   ar
    27    13    14    2
    28     6     7   ar
    29     8     9   ar
    30    10    11   ar
    31     1     3   ar
    32     2     4   ar
    33    25    35    2
    34    28    29   ar
    35    30    31   ar
    36    32    33   ar
    37    17    18   ar
    38    19    20   ar
    39    21    22   ar
    40    15    16    1
@<TRIPOS>MOLECULE
MolPort-010-714-222 ChemDiv-D481-2665 MCULE-5981365152 PubChem-50751107 ZINC000033320748 ZINC33320748
 36 40 0 0 0
SMALL
GASTEIGER

@<TRIPOS>ATOM
      1 C           9.7217   42.1943    8.2925 C.ar    1  UNL1        0.1706
      2 C          11.5437   41.1047    8.3065 C.ar    1  UNL1        0.1975
      3 N          10.4238   42.5848    9.3808 N.ar    1  UNL1       -0.1279
      4 N          11.5552   41.8944    9.3904 N.ar    1  UNL1       -0.1218
      5 N          10.4060   41.2593    7.5923 N.ar    1  UNL1       -0.2690
      6 C           5.9082   43.9258    7.3346 C.ar    1  UNL1        0.0503
      7 C           6.6129   43.2104    6.3600 C.ar    1  UNL1        0.0148
      8 C           7.8558   42.6474    6.6565 C.ar    1  UNL1        0.0043
      9 C           8.4107   42.7850    7.9366 C.ar    1  UNL1        0.0364
     10 C           7.7037   43.5105    8.9057 C.ar    1  UNL1        0.0043
     11 C           6.4630   44.0753    8.6076 C.ar    1  UNL1        0.0148
     12 C           2.2546   45.2546    7.3632 C.3     1  UNL1        0.0949
     13 C           3.5319   44.7133    7.8969 C.2     1  UNL1        0.2266
     14 O           3.6378   44.4840    9.1343 O.2     1  UNL1       -0.2748
     15 N           4.6250   44.4773    6.9995 N.am    1  UNL1       -0.2839
     16 H           4.4810   44.7182    6.0559 H       1  UNL1        0.1549
     17 C          10.0525   40.5955    6.3751 C.ar    1  UNL1        0.0672
     18 C          10.7267   40.9066    5.1885 C.ar    1  UNL1        0.0176
     19 C          10.3646   40.2916    3.9937 C.ar    1  UNL1        0.0015
     20 C           9.3264   39.3527    3.9766 C.ar    1  UNL1        0.0001
     21 C           8.6578   39.0344    5.1598 C.ar    1  UNL1        0.0015
     22 C           9.0207   39.6555    6.3597 C.ar    1  UNL1        0.0176
     23 S          12.7764   39.8445    7.9951 S.3     1  UNL1       -0.0655
     24 C          12.3111   38.8447    9.4329 C.3     1  UNL1        0.1501
     25 C          13.2766   37.7262    9.6443 C.2     1  UNL1        0.2373
     26 C          15.1323   39.3879    9.9868 C.3     1  UNL1        0.0984
     27 C          16.5215   39.4916    9.3703 C.3     1  UNL1        0.0476
     28 C          17.4421   38.5361   10.0564 C.ar    1  UNL1       -0.0228
     29 C          18.7837   38.8918   10.2677 C.ar    1  UNL1       -0.0045
     30 C          19.6517   38.0095   10.9161 C.ar    1  UNL1       -0.0003
     31 C          19.1811   36.7685   11.3440 C.ar    1  UNL1       -0.0003
     32 C          17.8405   36.4125   11.1382 C.ar    1  UNL1       -0.0029
     33 C          16.9675   37.2923   10.4978 C.ar    1  UNL1       -0.0062
     34 C          15.5342   36.8760   10.2784 C.3     1  UNL1        0.1198
     35 O          12.8522   36.5333    9.6523 O.2     1  UNL1       -0.2739
     36 N          14.6601   38.0003    9.9136 N.am    1  UNL1       -0.2744
@<TRIPOS>BOND
     1    12    13    1
     2    13    15   am
     3     7     8   ar
     4     9    10   ar
     5     9     1    1
     6    11     6   ar
     7     2    23    1
     8     2     5   ar
     9    24    23    1
    10    24    25    1
    11    25    36   am
    12    26    36    1
    13    26    27    1
    14    27    28    1
    15    29    30   ar
    16    31    32   ar
    17    33    28   ar
    18    34    33    1
    19    34    36    1
    20    18    19   ar
    21    20    21   ar
    22    22    17   ar
    23    15     6    1
    24     3     4   ar
    25     5    17    1
    26     5     1   ar
    27    13    14    2
    28     6     7   ar
    29     8     9   ar
    30    10    11   ar
    31     1     3   ar
    32     2     4   ar
    33    25    35    2
    34    28    29   ar
    35    30    31   ar
    36    32    33   ar
    37    17    18   ar
    38    19    20   ar
    39    21    22   ar
    40    15    16    1
@<TRIPOS>MOLECULE
MolPort-010-714-222 ChemDiv-D481-2665 MCULE-5981365152 PubChem-50751107 ZINC000033320748 ZINC33320748
 36 40 0 0 0
SMALL
GASTEIGER

@<TRIPOS>ATOM
      1 C           9.5047   41.3968   10.0258 C.ar    1  UNL1        0.1706
      2 C          11.1473   40.0950   10.3638 C.ar    1  UNL1        0.1975
      3 N           9.8797   41.5381   11.3178 N.ar    1  UNL1       -0.1279
      4 N          10.8983   40.7160   11.5262 N.ar    1  UNL1       -0.1218
      5 N          10.2898   40.4913    9.3963 N.ar    1  UNL1       -0.2690
      6 C           6.2913   43.6396    8.2642 C.ar    1  UNL1        0.0503
      7 C           7.4945   44.2793    8.5830 C.ar    1  UNL1        0.0148
      8 C           8.5447   43.5634    9.1610 C.ar    1  UNL1        0.0043
      9 C           8.4104   42.1926    9.4228 C.ar    1  UNL1        0.0364
     10 C           7.1994   41.5598    9.1094 C.ar    1  UNL1        0.0043
     11 C           6.1494   42.2767    8.5344 C.ar    1  UNL1        0.0148
     12 C           2.9220   45.3503    7.3501 C.3     1  UNL1        0.0949
     13 C           3.8960   44.5502    8.1377 C.2     1  UNL1        0.2266
     14 O           3.5288   44.0248    9.2258 O.2     1  UNL1       -0.2748
     15 N           5.2383   44.4035    7.6555 N.am    1  UNL1       -0.2839
     16 H           5.4613   44.8753    6.8207 H       1  UNL1        0.1549
     17 C          10.2631   40.0559    8.0336 C.ar    1  UNL1        0.0672
     18 C           9.4171   39.0083    7.6513 C.ar    1  UNL1        0.0176
     19 C           9.4117   38.5553    6.3355 C.ar    1  UNL1        0.0015
     20 C          10.2501   39.1521    5.3864 C.ar    1  UNL1        0.0001
     21 C          11.0887   40.2024    5.7630 C.ar    1  UNL1        0.0015
     22 C          11.0955   40.6550    7.0867 C.ar    1  UNL1        0.0176
     23 S          12.3125   38.7460   10.1997 S.3     1  UNL1       -0.0655
     24 C          13.5594   39.5163   11.2652 C.3     1  UNL1        0.1501
     25 C          14.7667   38.6481   11.3931 C.2     1  UNL1        0.2373
     26 C          14.5563   37.9929    8.9747 C.3     1  UNL1        0.0984
     27 C          14.5553   36.6300    8.2942 C.3     1  UNL1        0.0476
     28 C          15.9603   36.1420    8.1570 C.ar    1  UNL1       -0.0228
     29 C          16.3358   35.4112    7.0186 C.ar    1  UNL1       -0.0045
     30 C          17.6495   34.9573    6.8757 C.ar    1  UNL1       -0.0003
     31 C          18.5846   35.2252    7.8750 C.ar    1  UNL1       -0.0003
     32 C          18.2134   35.9587    9.0109 C.ar    1  UNL1       -0.0029
     33 C          16.9049   36.4207    9.1557 C.ar    1  UNL1       -0.0062
     34 C          16.5318   37.1955   10.3952 C.3     1  UNL1        0.1198
     35 O          15.4037   38.6283   12.4873 O.2     1  UNL1       -0.2739
     36 N          15.2491   37.9017   10.2653 N.am    1  UNL1       -0.2744
@<TRIPOS>BOND
     1    12    13    1
     2    13    15   am
     3     7     8   ar
     4     9    10   ar
     5     9     1    1
     6    11     6   ar
     7     2    23    1
     8     2     5   ar
     9    24    23    1
    10    24    25    1
    11    25    36   am
    12    26    36    1
    13    26    27    1
    14    27    28    1
    15    29    30   ar
    16    31    32   ar
    17    33    28   ar
    18    34    33    1
    19    34    36    1
    20    18    19   ar
    21    20    21   ar
    22    22    17   ar
    23    15     6    1
    24     3     4   ar
    25     5    17    1
    26     5     1   ar
    27    13    14    2
    28     6     7   ar
    29     8     9   ar
    30    10    11   ar
    31     1     3   ar
    32     2     4   ar
    33    25    35    2
    34    28    29   ar
    35    30    31   ar
    36    32    33   ar
    37    17    18   ar
    38    19    20   ar
    39    21    22   ar
    40    15    16    1
@<TRIPOS>MOLECULE
MolPort-010-714-222 ChemDiv-D481-2665 MCULE-5981365152 PubChem-50751107 ZINC000033320748 ZINC33320748
 36 40 0 0 0
SMALL
GASTEIGER

@<TRIPOS>ATOM
      1 C          12.4241   41.3523    7.1096 C.ar    1  UNL1        0.1706
      2 C          10.4593   41.8932    6.5146 C.ar    1  UNL1        0.1975
      3 N          12.3934   41.3593    5.7572 N.ar    1  UNL1       -0.1279
      4 N          11.1624   41.6873    5.3912 N.ar    1  UNL1       -0.1218
      5 N          11.2148   41.6878    7.6171 N.ar    1  UNL1       -0.2690
      6 C          15.9653   40.4539    9.3705 C.ar    1  UNL1        0.0503
      7 C          15.9249   41.5971    8.5643 C.ar    1  UNL1        0.0148
      8 C          14.7824   41.8977    7.8201 C.ar    1  UNL1        0.0043
      9 C          13.6579   41.0623    7.8764 C.ar    1  UNL1        0.0364
     10 C          13.7082   39.9139    8.6790 C.ar    1  UNL1        0.0043
     11 C          14.8515   39.6127    9.4201 C.ar    1  UNL1        0.0148
     12 C          19.1187   38.8666   10.9987 C.3     1  UNL1        0.0949
     13 C          17.9402   38.9881   10.1011 C.2     1  UNL1        0.2266
     14 O          17.6623   38.0411    9.3132 O.2     1  UNL1       -0.2748
     15 N          17.1510   40.1846   10.1352 N.am    1  UNL1       -0.2839
     16 H          17.4530   40.8952   10.7460 H       1  UNL1        0.1549
     17 C          10.8081   41.8266    8.9818 C.ar    1  UNL1        0.0672
     18 C          10.6785   43.1011    9.5460 C.ar    1  UNL1        0.0176
     19 C          10.3182   43.2435   10.8827 C.ar    1  UNL1        0.0015
     20 C          10.0775   42.1093   11.6672 C.ar    1  UNL1        0.0001
     21 C          10.1978   40.8373   11.1050 C.ar    1  UNL1        0.0015
     22 C          10.5630   40.6954    9.7620 C.ar    1  UNL1        0.0176
     23 S           8.6907   42.1690    6.5308 S.3     1  UNL1       -0.0655
     24 C           8.2814   40.4277    6.2409 C.3     1  UNL1        0.1501
     25 C           6.8584   40.1450    6.5915 C.2     1  UNL1        0.2373
     26 C           7.0767   41.5766    8.6471 C.3     1  UNL1        0.0984
     27 C           6.7187   41.3127   10.1041 C.3     1  UNL1        0.0476
     28 C           5.2504   41.5068   10.2979 C.ar    1  UNL1       -0.0228
     29 C           4.7734   42.0614   11.4962 C.ar    1  UNL1       -0.0045
     30 C           3.4026   42.2555   11.6850 C.ar    1  UNL1       -0.0003
     31 C           2.5087   41.8861   10.6803 C.ar    1  UNL1       -0.0003
     32 C           2.9827   41.3361    9.4808 C.ar    1  UNL1       -0.0029
     33 C           4.3509   41.1466    9.2838 C.ar    1  UNL1       -0.0062
     34 C           4.8300   40.5400    7.9883 C.3     1  UNL1        0.1198
     35 O           6.1491   39.4572    5.7997 O.2     1  UNL1       -0.2739
     36 N           6.2745   40.7106    7.7752 N.am    1  UNL1       -0.2744
@<TRIPOS>BOND
     1    12    13    1
     2    13    15   am
     3     7     8   ar
     4     9    10   ar
     5     9     1    1
     6    11     6   ar
     7     2    23    1
     8     2     5   ar
     9    24    23    1
    10    24    25    1
    11    25    36   am
    12    26    36    1
    13    26    27    1
    14    27    28    1
    15    29    30   ar
    16    31    32   ar
    17    33    28   ar
    18    34    33    1
    19    34    36    1
    20    18    19   ar
    21    20    21   ar
    22    22    17   ar
    23    15     6    1
    24     3     4   ar
    25     5    17    1
    26     5     1   ar
    27    13    14    2
    28     6     7   ar
    29     8     9   ar
    30    10    11   ar
    31     1     3   ar
    32     2     4   ar
    33    25    35    2
    34    28    29   ar
    35    30    31   ar
    36    32    33   ar
    37    17    18   ar
    38    19    20   ar
    39    21    22   ar
    40    15    16    1
@<TRIPOS>MOLECULE
MolPort-010-714-222 ChemDiv-D481-2665 MCULE-5981365152 PubChem-50751107 ZINC000033320748 ZINC33320748
 36 40 0 0 0
SMALL
GASTEIGER

@<TRIPOS>ATOM
      1 C           7.3178   41.6086   10.7158 C.ar    1  UNL1        0.1706
      2 C           9.2651   41.6597    9.8717 C.ar    1  UNL1        0.1975
      3 N           8.2000   41.3381   11.7050 N.ar    1  UNL1       -0.1279
      4 N           9.4128   41.3610   11.1707 N.ar    1  UNL1       -0.1218
      5 N           7.9628   41.8182    9.5441 N.ar    1  UNL1       -0.2690
      6 C           3.0873   41.8122   11.4373 C.ar    1  UNL1        0.0503
      7 C           3.7143   42.8108   10.6835 C.ar    1  UNL1        0.0148
      8 C           5.0893   42.7596   10.4464 C.ar    1  UNL1        0.0043
      9 C           5.8588   41.7033   10.9539 C.ar    1  UNL1        0.0364
     10 C           5.2261   40.7110   11.7157 C.ar    1  UNL1        0.0043
     11 C           3.8524   40.7644   11.9547 C.ar    1  UNL1        0.0148
     12 C          -0.4853   42.2788   12.8977 C.3     1  UNL1        0.0949
     13 C           0.9999   42.3036   12.8458 C.2     1  UNL1        0.2266
     14 O           1.6477   42.7040   13.8532 O.2     1  UNL1       -0.2748
     15 N           1.6685   41.8879   11.6475 N.am    1  UNL1       -0.2839
     16 H           1.0958   41.6275   10.8903 H       1  UNL1        0.1549
     17 C           7.4291   42.1536    8.2597 C.ar    1  UNL1        0.0672
     18 C           7.0394   41.1384    7.3783 C.ar    1  UNL1        0.0176
     19 C           6.5531   41.4556    6.1135 C.ar    1  UNL1        0.0015
     20 C           6.4460   42.7950    5.7206 C.ar    1  UNL1        0.0001
     21 C           6.8262   43.8097    6.6005 C.ar    1  UNL1        0.0015
     22 C           7.3177   43.4895    7.8705 C.ar    1  UNL1        0.0176
     23 S          10.6116   41.6133    8.6930 S.3     1  UNL1       -0.0655
     24 C          11.0893   39.9142    9.1030 C.3     1  UNL1        0.1501
     25 C          12.5690   39.7951    9.2586 C.2     1  UNL1        0.2373
     26 C          12.8816   41.9147    7.9427 C.3     1  UNL1        0.0984
     27 C          13.7732   42.2415    6.7515 C.3     1  UNL1        0.0476
     28 C          15.1648   42.5004    7.2287 C.ar    1  UNL1       -0.0228
     29 C          15.9468   43.4802    6.5967 C.ar    1  UNL1       -0.0045
     30 C          17.2467   43.7368    7.0402 C.ar    1  UNL1       -0.0003
     31 C          17.7678   43.0074    8.1084 C.ar    1  UNL1       -0.0003
     32 C          16.9874   42.0313    8.7443 C.ar    1  UNL1       -0.0029
     33 C          15.6862   41.7757    8.3104 C.ar    1  UNL1       -0.0062
     34 C          14.8755   40.7102    9.0055 C.3     1  UNL1        0.1198
     35 O          13.0455   38.8550    9.9603 O.2     1  UNL1       -0.2739
     36 N          13.4426   40.7796    8.6847 N.am    1  UNL1       -0.2744
@<TRIPOS>BOND
     1    12    13    1
     2    13    15   am
     3     7     8   ar
     4     9    10   ar
     5     9     1    1
     6    11     6   ar
     7     2    23    1
     8     2     5   ar
     9    24    23    1
    10    24    25    1
    11    25    36   am
    12    26    36    1
    13    26    27    1
    14    27    28    1
    15    29    30   ar
    16    31    32   ar
    17    33    28   ar
    18    34    33    1
    19    34    36    1
    20    18    19   ar
    21    20    21   ar
    22    22    17   ar
    23    15     6    1
    24     3     4   ar
    25     5    17    1
    26     5     1   ar
    27    13    14    2
    28     6     7   ar
    29     8     9   ar
    30    10    11   ar
    31     1     3   ar
    32     2     4   ar
    33    25    35    2
    34    28    29   ar
    35    30    31   ar
    36    32    33   ar
    37    17    18   ar
    38    19    20   ar
    39    21    22   ar
    40    15    16    1
@<TRIPOS>MOLECULE
MolPort-010-714-222 ChemDiv-D481-2665 MCULE-5981365152 PubChem-50751107 ZINC000033320748 ZINC33320748
 36 40 0 0 0
SMALL
GASTEIGER

@<TRIPOS>ATOM
      1 C          14.2904   38.6223   10.7527 C.ar    1  UNL1        0.1706
      2 C          16.3855   38.3623   10.9756 C.ar    1  UNL1        0.1975
      3 N          14.4867   37.5628   11.5707 N.ar    1  UNL1       -0.1279
      4 N          15.7957   37.3986   11.6981 N.ar    1  UNL1       -0.1218
      5 N          15.4740   39.1499   10.3612 N.ar    1  UNL1       -0.2690
      6 C          10.3738   40.1246    9.8242 C.ar    1  UNL1        0.0503
      7 C          10.9011   39.0548    9.0922 C.ar    1  UNL1        0.0148
      8 C          12.1749   38.5607    9.3799 C.ar    1  UNL1        0.0043
      9 C          12.9394   39.1247   10.4109 C.ar    1  UNL1        0.0364
     10 C          12.4089   40.2020   11.1344 C.ar    1  UNL1        0.0043
     11 C          11.1370   40.6971   10.8443 C.ar    1  UNL1        0.0148
     12 C           7.2774   41.9449    8.3364 C.3     1  UNL1        0.0949
     13 C           8.6985   41.5376    8.4901 C.2     1  UNL1        0.2266
     14 O           9.5674   42.0163    7.7085 O.2     1  UNL1       -0.2748
     15 N           9.0537   40.5965    9.5118 N.am    1  UNL1       -0.2839
     16 H           8.3162   40.2365   10.0557 H       1  UNL1        0.1549
     17 C          15.7331   40.2807    9.5239 C.ar    1  UNL1        0.0672
     18 C          14.7585   40.7180    8.6193 C.ar    1  UNL1        0.0176
     19 C          15.0164   41.7948    7.7762 C.ar    1  UNL1        0.0015
     20 C          16.2524   42.4495    7.8352 C.ar    1  UNL1        0.0001
     21 C          17.2231   42.0207    8.7421 C.ar    1  UNL1        0.0015
     22 C          16.9638   40.9363    9.5870 C.ar    1  UNL1        0.0176
     23 S          18.1504   38.4316   10.6838 S.3     1  UNL1       -0.0655
     24 C          18.2833   36.6767   10.2526 C.3     1  UNL1        0.1501
     25 C          18.5316   36.5001    8.7914 C.2     1  UNL1        0.2373
     26 C          16.6516   34.8349    8.6694 C.3     1  UNL1        0.0984
     27 C          16.5811   33.4330    8.0775 C.3     1  UNL1        0.0476
     28 C          16.4047   33.5270    6.5972 C.ar    1  UNL1       -0.0228
     29 C          15.6043   32.5861    5.9301 C.ar    1  UNL1       -0.0045
     30 C          15.4252   32.6694    4.5469 C.ar    1  UNL1       -0.0003
     31 C          16.0541   33.6868    3.8299 C.ar    1  UNL1       -0.0003
     32 C          16.8505   34.6305    4.4942 C.ar    1  UNL1       -0.0029
     33 C          17.0271   34.5566    5.8762 C.ar    1  UNL1       -0.0062
     34 C          17.9006   35.5780    6.5613 C.3     1  UNL1        0.1198
     35 O          19.4128   37.2087    8.2217 O.2     1  UNL1       -0.2739
     36 N          17.7282   35.5929    8.0212 N.am    1  UNL1       -0.2744
@<TRIPOS>BOND
     1    12    13    1
     2    13    15   am
     3     7     8   ar
     4     9    10   ar
     5     9     1    1
     6    11     6   ar
     7     2    23    1
     8     2     5   ar
     9    24    23    1
    10    24    25    1
    11    25    36   am
    12    26    36    1
    13    26    27    1
    14    27    28    1
    15    29    30   ar
    16    31    32   ar
    17    33    28   ar
    18    34    33    1
    19    34    36    1
    20    18    19   ar
    21    20    21   ar
    22    22    17   ar
    23    15     6    1
    24     3     4   ar
    25     5    17    1
    26     5     1   ar
    27    13    14    2
    28     6     7   ar
    29     8     9   ar
    30    10    11   ar
    31     1     3   ar
    32     2     4   ar
    33    25    35    2
    34    28    29   ar
    35    30    31   ar
    36    32    33   ar
    37    17    18   ar
    38    19    20   ar
    39    21    22   ar
    40    15    16    1
@<TRIPOS>MOLECULE
MolPort-010-714-222 ChemDiv-D481-2665 MCULE-5981365152 PubChem-50751107 ZINC000033320748 ZINC33320748
 36 40 0 0 0
SMALL
GASTEIGER

@<TRIPOS>ATOM
      1 C          10.5674   42.0933    8.7237 C.ar    1  UNL1        0.1706
      2 C           8.7410   42.6512    7.7963 C.ar    1  UNL1        0.1975
      3 N          10.0210   43.0873    9.4609 N.ar    1  UNL1       -0.1279
      4 N           8.8867   43.4388    8.8720 N.ar    1  UNL1       -0.1218
      5 N           9.7790   41.7947    7.6645 N.ar    1  UNL1       -0.2690
      6 C          14.2671   40.1694    9.7580 C.ar    1  UNL1        0.0503
      7 C          13.1492   40.0208   10.5866 C.ar    1  UNL1        0.0148
      8 C          11.9425   40.6452   10.2651 C.ar    1  UNL1        0.0043
      9 C          11.8326   41.4232    9.1039 C.ar    1  UNL1        0.0364
     10 C          12.9587   41.5754    8.2829 C.ar    1  UNL1        0.0043
     11 C          14.1651   40.9534    8.6065 C.ar    1  UNL1        0.0148
     12 C          17.9724   39.0923   10.2328 C.3     1  UNL1        0.0949
     13 C          16.8217   39.9408    9.8263 C.2     1  UNL1        0.2266
     14 O          17.0389   41.0432    9.2498 O.2     1  UNL1       -0.2748
     15 N          15.4875   39.4994   10.1109 N.am    1  UNL1       -0.2839
     16 H          15.3988   38.6489   10.5988 H       1  UNL1        0.1549
     17 C           9.9574   40.8027    6.6490 C.ar    1  UNL1        0.0672
     18 C           9.4091   39.5256    6.8159 C.ar    1  UNL1        0.0176
     19 C           9.6088   38.5445    5.8494 C.ar    1  UNL1        0.0015
     20 C          10.3552   38.8348    4.7012 C.ar    1  UNL1        0.0001
     21 C          10.8962   40.1099    4.5283 C.ar    1  UNL1        0.0015
     22 C          10.6974   41.0945    5.5019 C.ar    1  UNL1        0.0176
     23 S           7.4530   42.8836    6.5750 S.3     1  UNL1       -0.0655
     24 C           6.8530   44.4292    7.3062 C.3     1  UNL1        0.1501
     25 C           5.4541   44.2799    7.8047 C.2     1  UNL1        0.2373
     26 C           6.2191   42.5275    9.4376 C.3     1  UNL1        0.0984
     27 C           5.6931   41.1300    9.7392 C.3     1  UNL1        0.0476
     28 C           4.4955   41.2307   10.6262 C.ar    1  UNL1       -0.0228
     29 C           4.2785   40.2593   11.6164 C.ar    1  UNL1       -0.0045
     30 C           3.1663   40.3482   12.4574 C.ar    1  UNL1       -0.0003
     31 C           2.2663   41.4021   12.3020 C.ar    1  UNL1       -0.0003
     32 C           2.4830   42.3761   11.3169 C.ar    1  UNL1       -0.0029
     33 C           3.5956   42.2964   10.4789 C.ar    1  UNL1       -0.0062
     34 C           3.7949   43.3516    9.4193 C.3     1  UNL1        0.1198
     35 O           4.5479   45.0359    7.3460 O.2     1  UNL1       -0.2739
     36 N           5.1500   43.3430    8.8496 N.am    1  UNL1       -0.2744
@<TRIPOS>BOND
     1    12    13    1
     2    13    15   am
     3     7     8   ar
     4     9    10   ar
     5     9     1    1
     6    11     6   ar
     7     2    23    1
     8     2     5   ar
     9    24    23    1
    10    24    25    1
    11    25    36   am
    12    26    36    1
    13    26    27    1
    14    27    28    1
    15    29    30   ar
    16    31    32   ar
    17    33    28   ar
    18    34    33    1
    19    34    36    1
    20    18    19   ar
    21    20    21   ar
    22    22    17   ar
    23    15     6    1
    24     3     4   ar
    25     5    17    1
    26     5     1   ar
    27    13    14    2
    28     6     7   ar
    29     8     9   ar
    30    10    11   ar
    31     1     3   ar
    32     2     4   ar
    33    25    35    2
    34    28    29   ar
    35    30    31   ar
    36    32    33   ar
    37    17    18   ar
    38    19    20   ar
    39    21    22   ar
    40    15    16    1
