@<TRIPOS>MOLECULE
Molport-020-284-131 MCULE-4152218137 PubChem-110258992
 26 29 0 0 0
SMALL
GASTEIGER

@<TRIPOS>ATOM
      1 C          10.2468   41.8223    9.7788 C.ar    1  UNL1       -0.0165
      2 C           8.9289   42.1774   10.0747 C.ar    1  UNL1        0.0303
      3 C           8.4057   41.9019   11.3406 C.ar    1  UNL1        0.1340
      4 C          10.4728   40.9335   12.0114 C.ar    1  UNL1        0.1000
      5 C          11.0277   41.1935   10.7575 C.ar    1  UNL1        0.0166
      6 N           9.1869   41.2893   12.2743 N.ar    1  UNL1       -0.2290
      7 C          10.5565   41.7387    5.9498 C.3     1  UNL1        0.0219
      8 C           9.9973   41.4021    7.3310 C.3     1  UNL1        0.0078
      9 C          10.7958   42.1231    8.4206 C.3     1  UNL1        0.0424
     10 C          12.2762   41.7513    8.3333 C.3     1  UNL1        0.0979
     11 C          12.0327   41.3581    5.8725 C.3     1  UNL1        0.0936
     12 N          12.7559   41.9866    6.9746 N.pl3   1  UNL1       -0.2779
     13 C          13.8781   42.8452    6.7274 C.ar    1  UNL1        0.2202
     14 C          14.7806   44.7924    5.7253 C.ar    1  UNL1        0.1034
     15 C          16.0357   44.4975    6.2539 C.ar    1  UNL1        0.0414
     16 C          16.1734   43.3468    7.0276 C.ar    1  UNL1        0.1034
     17 N          13.7297   43.9668    5.9692 N.ar    1  UNL1       -0.2121
     18 N          15.0995   42.5453    7.2499 N.ar    1  UNL1       -0.2121
     19 N           7.0522   42.2721   11.6296 N.pl3   1  UNL1       -0.2680
     20 H           6.9195   42.9956   12.2839 H       1  UNL1        0.1565
     21 C           5.8730   41.6919   11.0590 C.ar    1  UNL1        0.2218
     22 C           4.0235   40.2337   11.2891 C.ar    1  UNL1        0.1034
     23 C           3.5966   40.5510   10.0011 C.ar    1  UNL1        0.0414
     24 C           4.3500   41.4600    9.2609 C.ar    1  UNL1        0.1034
     25 N           5.1480   40.8064   11.7927 N.ar    1  UNL1       -0.2120
     26 N           5.4685   42.0119    9.7991 N.ar    1  UNL1       -0.2120
@<TRIPOS>BOND
     1     7     8    1
     2     8     9    1
     3     9    10    1
     4     9     1    1
     5    10    12    1
     6    11    12    1
     7    11     7    1
     8    13    18   ar
     9    14    17   ar
    10    15    16   ar
    11     2     3   ar
    12     3    19    1
    13     4     6   ar
    14     5     1   ar
    15    21    26   ar
    16    22    25   ar
    17    23    24   ar
    18    12    13    1
    19    19    21    1
    20    13    17   ar
    21    14    15   ar
    22    16    18   ar
    23     1     2   ar
    24     3     6   ar
    25     4     5   ar
    26    21    25   ar
    27    22    23   ar
    28    24    26   ar
    29    19    20    1
@<TRIPOS>MOLECULE
Molport-020-284-131 MCULE-4152218137 PubChem-110258992
 26 29 0 0 0
SMALL
GASTEIGER

@<TRIPOS>ATOM
      1 C          12.4101   39.0821    9.5368 C.ar    1  UNL1       -0.0165
      2 C          13.5624   38.9242   10.3101 C.ar    1  UNL1        0.0303
      3 C          13.7657   37.7343   11.0136 C.ar    1  UNL1        0.1340
      4 C          11.7075   36.8681   10.1925 C.ar    1  UNL1        0.1000
      5 C          11.4722   38.0430    9.4770 C.ar    1  UNL1        0.0166
      6 N          12.8375   36.7393   10.9381 N.ar    1  UNL1       -0.2290
      7 C          10.5733   41.7813    7.5108 C.3     1  UNL1        0.0219
      8 C          10.7729   40.4608    8.2524 C.3     1  UNL1        0.0078
      9 C          12.2040   40.3601    8.7877 C.3     1  UNL1        0.0424
     10 C          13.2125   40.4951    7.6466 C.3     1  UNL1        0.0979
     11 C          11.5812   41.9024    6.3709 C.3     1  UNL1        0.0936
     12 N          12.9319   41.7136    6.8932 N.pl3   1  UNL1       -0.2779
     13 C          13.9417   42.7156    6.7092 C.ar    1  UNL1        0.2202
     14 C          14.6137   44.7987    5.8039 C.ar    1  UNL1        0.1034
     15 C          15.8831   44.6435    6.3573 C.ar    1  UNL1        0.0414
     16 C          16.1470   43.4899    7.0928 C.ar    1  UNL1        0.1034
     17 N          13.6705   43.8385    5.9878 N.ar    1  UNL1       -0.2121
     18 N          15.1784   42.5515    7.2553 N.ar    1  UNL1       -0.2121
     19 N          14.9524   37.5868   11.8025 N.pl3   1  UNL1       -0.2680
     20 H          14.8358   37.2590   12.7235 H       1  UNL1        0.1565
     21 C          16.2925   37.8698   11.3818 C.ar    1  UNL1        0.2218
     22 C          17.8980   39.4619   10.6837 C.ar    1  UNL1        0.1034
     23 C          18.8601   38.4603   10.5684 C.ar    1  UNL1        0.0414
     24 C          18.4911   37.1519   10.8747 C.ar    1  UNL1        0.1034
     25 N          16.6381   39.1509   11.0861 N.ar    1  UNL1       -0.2120
     26 N          17.2213   36.8804   11.2739 N.ar    1  UNL1       -0.2120
@<TRIPOS>BOND
     1     7     8    1
     2     8     9    1
     3     9    10    1
     4     9     1    1
     5    10    12    1
     6    11    12    1
     7    11     7    1
     8    13    18   ar
     9    14    17   ar
    10    15    16   ar
    11     2     3   ar
    12     3    19    1
    13     4     6   ar
    14     5     1   ar
    15    21    26   ar
    16    22    25   ar
    17    23    24   ar
    18    12    13    1
    19    19    21    1
    20    13    17   ar
    21    14    15   ar
    22    16    18   ar
    23     1     2   ar
    24     3     6   ar
    25     4     5   ar
    26    21    25   ar
    27    22    23   ar
    28    24    26   ar
    29    19    20    1
@<TRIPOS>MOLECULE
Molport-020-284-131 MCULE-4152218137 PubChem-110258992
 26 29 0 0 0
SMALL
GASTEIGER

@<TRIPOS>ATOM
      1 C          14.3219   39.4623   10.4374 C.ar    1  UNL1       -0.0165
      2 C          15.2189   40.2101    9.6713 C.ar    1  UNL1        0.0303
      3 C          16.5854   40.1562    9.9574 C.ar    1  UNL1        0.1340
      4 C          16.1771   38.6368   11.7421 C.ar    1  UNL1        0.1000
      5 C          14.8058   38.6668   11.4843 C.ar    1  UNL1        0.0166
      6 N          17.0296   39.3743   10.9814 N.ar    1  UNL1       -0.2290
      7 C          10.8806   38.2994    9.1848 C.3     1  UNL1        0.0219
      8 C          12.3775   38.2241    9.4797 C.3     1  UNL1        0.0078
      9 C          12.8617   39.5276   10.1210 C.3     1  UNL1        0.0424
     10 C          12.5504   40.7180    9.2134 C.3     1  UNL1        0.0979
     11 C          10.5827   39.4874    8.2738 C.3     1  UNL1        0.0936
     12 N          11.1328   40.7042    8.8649 N.pl3   1  UNL1       -0.2779
     13 C          10.2961   41.8374    9.1356 C.ar    1  UNL1        0.2202
     14 C           8.3239   43.0737    8.6969 C.ar    1  UNL1        0.1034
     15 C           8.6859   44.0156    9.6579 C.ar    1  UNL1        0.0414
     16 C           9.8818   43.8294   10.3483 C.ar    1  UNL1        0.1034
     17 N           9.1297   42.0075    8.4533 N.ar    1  UNL1       -0.2121
     18 N          10.6617   42.7507   10.0774 N.ar    1  UNL1       -0.2121
     19 N          17.4934   40.9287    9.1629 N.pl3   1  UNL1       -0.2680
     20 H          18.4343   40.6391    9.1555 H       1  UNL1        0.1565
     21 C          17.1656   42.0818    8.3782 C.ar    1  UNL1        0.2218
     22 C          15.5782   43.2512    7.0696 C.ar    1  UNL1        0.1034
     23 C          16.4914   44.2829    6.8606 C.ar    1  UNL1        0.0414
     24 C          17.7548   44.1737    7.4383 C.ar    1  UNL1        0.1034
     25 N          15.9293   42.1747    7.8205 N.ar    1  UNL1       -0.2120
     26 N          18.0686   43.0817    8.1829 N.ar    1  UNL1       -0.2120
@<TRIPOS>BOND
     1     7     8    1
     2     8     9    1
     3     9    10    1
     4     9     1    1
     5    10    12    1
     6    11    12    1
     7    11     7    1
     8    13    18   ar
     9    14    17   ar
    10    15    16   ar
    11     2     3   ar
    12     3    19    1
    13     4     6   ar
    14     5     1   ar
    15    21    26   ar
    16    22    25   ar
    17    23    24   ar
    18    12    13    1
    19    19    21    1
    20    13    17   ar
    21    14    15   ar
    22    16    18   ar
    23     1     2   ar
    24     3     6   ar
    25     4     5   ar
    26    21    25   ar
    27    22    23   ar
    28    24    26   ar
    29    19    20    1
@<TRIPOS>MOLECULE
Molport-020-284-131 MCULE-4152218137 PubChem-110258992
 26 29 0 0 0
SMALL
GASTEIGER

@<TRIPOS>ATOM
      1 C          11.0108   41.3912    9.9795 C.ar    1  UNL1       -0.0165
      2 C          11.4793   41.8047    8.7303 C.ar    1  UNL1        0.0303
      3 C          12.7235   41.3599    8.2762 C.ar    1  UNL1        0.1340
      4 C          13.0343   40.1095   10.2763 C.ar    1  UNL1        0.1000
      5 C          11.7966   40.5342   10.7613 C.ar    1  UNL1        0.0166
      6 N          13.4677   40.5267    9.0567 N.ar    1  UNL1       -0.2290
      7 C           8.0078   41.8553   12.3312 C.3     1  UNL1        0.0219
      8 C           9.3618   41.3346   11.8525 C.3     1  UNL1        0.0078
      9 C           9.6772   41.8735   10.4544 C.3     1  UNL1        0.0424
     10 C           8.5726   41.4868    9.4705 C.3     1  UNL1        0.0979
     11 C           6.9126   41.4587   11.3448 C.3     1  UNL1        0.0936
     12 N           7.2798   41.9058   10.0039 N.pl3   1  UNL1       -0.2779
     13 C           6.4154   42.7670    9.2499 C.ar    1  UNL1        0.2202
     14 C           6.1088   44.3265    7.4937 C.ar    1  UNL1        0.1034
     15 C           4.7524   44.4215    7.7985 C.ar    1  UNL1        0.0414
     16 C           4.2573   43.6597    8.8549 C.ar    1  UNL1        0.1034
     17 N           6.9123   43.5064    8.2197 N.ar    1  UNL1       -0.2121
     18 N           5.0915   42.8506    9.5583 N.ar    1  UNL1       -0.2121
     19 N          13.1908   41.7924    6.9928 N.pl3   1  UNL1       -0.2680
     20 H          12.8042   41.3456    6.2054 H       1  UNL1        0.1565
     21 C          14.1661   42.8120    6.7437 C.ar    1  UNL1        0.2218
     22 C          16.3741   43.6115    7.0361 C.ar    1  UNL1        0.1034
     23 C          16.0748   44.7493    6.2891 C.ar    1  UNL1        0.0414
     24 C          14.7855   44.8831    5.7775 C.ar    1  UNL1        0.1034
     25 N          15.4198   42.6681    7.2492 N.ar    1  UNL1       -0.2120
     26 N          13.8586   43.9180    6.0119 N.ar    1  UNL1       -0.2120
@<TRIPOS>BOND
     1     7     8    1
     2     8     9    1
     3     9    10    1
     4     9     1    1
     5    10    12    1
     6    11    12    1
     7    11     7    1
     8    13    18   ar
     9    14    17   ar
    10    15    16   ar
    11     2     3   ar
    12     3    19    1
    13     4     6   ar
    14     5     1   ar
    15    21    26   ar
    16    22    25   ar
    17    23    24   ar
    18    12    13    1
    19    19    21    1
    20    13    17   ar
    21    14    15   ar
    22    16    18   ar
    23     1     2   ar
    24     3     6   ar
    25     4     5   ar
    26    21    25   ar
    27    22    23   ar
    28    24    26   ar
    29    19    20    1
@<TRIPOS>MOLECULE
Molport-020-284-131 MCULE-4152218137 PubChem-110258992
 26 29 0 0 0
SMALL
GASTEIGER

@<TRIPOS>ATOM
      1 C          14.0683   39.3896   10.0211 C.ar    1  UNL1       -0.0165
      2 C          14.1097   40.0871    8.8117 C.ar    1  UNL1        0.0303
      3 C          13.1280   41.0400    8.5287 C.ar    1  UNL1        0.1340
      4 C          12.0768   40.6145   10.6202 C.ar    1  UNL1        0.1000
      5 C          13.0408   39.6560   10.9357 C.ar    1  UNL1        0.0166
      6 N          12.1396   41.2798    9.4357 N.ar    1  UNL1       -0.2290
      7 C          17.4129   37.9672   11.2677 C.3     1  UNL1        0.0219
      8 C          16.3538   39.0227   10.9552 C.3     1  UNL1        0.0078
      9 C          15.1252   38.3726   10.3130 C.3     1  UNL1        0.0424
     10 C          15.5219   37.6153    9.0454 C.3     1  UNL1        0.0979
     11 C          17.8052   37.2220    9.9946 C.3     1  UNL1        0.0936
     12 N          16.6064   36.6880    9.3540 N.pl3   1  UNL1       -0.2779
     13 C          16.4796   35.2866    9.0757 C.ar    1  UNL1        0.2202
     14 C          15.1141   33.4174    8.5739 C.ar    1  UNL1        0.1034
     15 C          16.2361   32.5918    8.5382 C.ar    1  UNL1        0.0414
     16 C          17.4841   33.1619    8.7810 C.ar    1  UNL1        0.1034
     17 N          15.2536   34.7421    8.8403 N.ar    1  UNL1       -0.2121
     18 N          17.5843   34.4908    9.0439 N.ar    1  UNL1       -0.2121
     19 N          13.1835   41.7474    7.2841 N.pl3   1  UNL1       -0.2680
     20 H          12.5038   41.5157    6.6106 H       1  UNL1        0.1565
     21 C          14.1318   42.7593    6.9240 C.ar    1  UNL1        0.2218
     22 C          16.3391   43.6012    7.0612 C.ar    1  UNL1        0.1034
     23 C          15.9901   44.6837    6.2560 C.ar    1  UNL1        0.0414
     24 C          14.6772   44.7689    5.7968 C.ar    1  UNL1        0.1034
     25 N          15.4091   42.6632    7.3794 N.ar    1  UNL1       -0.2120
     26 N          13.7757   43.8111    6.1364 N.ar    1  UNL1       -0.2120
@<TRIPOS>BOND
     1     7     8    1
     2     8     9    1
     3     9    10    1
     4     9     1    1
     5    10    12    1
     6    11    12    1
     7    11     7    1
     8    13    18   ar
     9    14    17   ar
    10    15    16   ar
    11     2     3   ar
    12     3    19    1
    13     4     6   ar
    14     5     1   ar
    15    21    26   ar
    16    22    25   ar
    17    23    24   ar
    18    12    13    1
    19    19    21    1
    20    13    17   ar
    21    14    15   ar
    22    16    18   ar
    23     1     2   ar
    24     3     6   ar
    25     4     5   ar
    26    21    25   ar
    27    22    23   ar
    28    24    26   ar
    29    19    20    1
@<TRIPOS>MOLECULE
Molport-020-284-131 MCULE-4152218137 PubChem-110258992
 26 29 0 0 0
SMALL
GASTEIGER

@<TRIPOS>ATOM
      1 C           9.9818   41.8638    7.6914 C.ar    1  UNL1       -0.0165
      2 C          11.3587   41.9241    7.9177 C.ar    1  UNL1        0.0303
      3 C          12.2439   41.5767    6.8941 C.ar    1  UNL1        0.1340
      4 C          10.4191   41.1155    5.4388 C.ar    1  UNL1        0.1000
      5 C           9.5064   41.4552    6.4384 C.ar    1  UNL1        0.0166
      6 N          11.7549   41.1825    5.6847 N.ar    1  UNL1       -0.2290
      7 C           8.8266   42.8353   11.2249 C.3     1  UNL1        0.0219
      8 C           9.7951   42.4302   10.1153 C.3     1  UNL1        0.0078
      9 C           9.0442   42.2389    8.7946 C.3     1  UNL1        0.0424
     10 C           7.9397   41.1939    8.9539 C.3     1  UNL1        0.0979
     11 C           7.7322   41.7825   11.3788 C.3     1  UNL1        0.0936
     12 N           7.0916   41.5536   10.0865 N.pl3   1  UNL1       -0.2779
     13 C           5.6762   41.7200    9.9239 C.ar    1  UNL1        0.2202
     14 C           3.8416   43.0331    9.2026 C.ar    1  UNL1        0.1034
     15 C           2.9542   42.0388    9.6093 C.ar    1  UNL1        0.0414
     16 C           3.4765   40.8794   10.1790 C.ar    1  UNL1        0.1034
     17 N           5.1788   42.8583    9.3657 N.ar    1  UNL1       -0.2121
     18 N           4.8197   40.7403   10.3258 N.ar    1  UNL1       -0.2121
     19 N          13.6535   41.6434    7.1411 N.pl3   1  UNL1       -0.2680
     20 H          14.0669   40.8600    7.5708 H       1  UNL1        0.1565
     21 C          14.5203   42.7392    6.8236 C.ar    1  UNL1        0.2218
     22 C          16.6359   43.7746    7.0522 C.ar    1  UNL1        0.1034
     23 C          16.2227   44.8279    6.2387 C.ar    1  UNL1        0.0414
     24 C          14.9264   44.7987    5.7282 C.ar    1  UNL1        0.1034
     25 N          15.7823   42.7544    7.3289 N.ar    1  UNL1       -0.2120
     26 N          14.1022   43.7611    6.0274 N.ar    1  UNL1       -0.2120
@<TRIPOS>BOND
     1     7     8    1
     2     8     9    1
     3     9    10    1
     4     9     1    1
     5    10    12    1
     6    11    12    1
     7    11     7    1
     8    13    18   ar
     9    14    17   ar
    10    15    16   ar
    11     2     3   ar
    12     3    19    1
    13     4     6   ar
    14     5     1   ar
    15    21    26   ar
    16    22    25   ar
    17    23    24   ar
    18    12    13    1
    19    19    21    1
    20    13    17   ar
    21    14    15   ar
    22    16    18   ar
    23     1     2   ar
    24     3     6   ar
    25     4     5   ar
    26    21    25   ar
    27    22    23   ar
    28    24    26   ar
    29    19    20    1
@<TRIPOS>MOLECULE
Molport-020-284-131 MCULE-4152218137 PubChem-110258992
 26 29 0 0 0
SMALL
GASTEIGER

@<TRIPOS>ATOM
      1 C          10.8050   39.8642    5.7321 C.ar    1  UNL1       -0.0165
      2 C           9.5777   40.1481    6.3354 C.ar    1  UNL1        0.0303
      3 C           8.3904   39.8358    5.6685 C.ar    1  UNL1        0.1340
      4 C           9.6234   38.9704    3.8269 C.ar    1  UNL1        0.1000
      5 C          10.8286   39.2688    4.4641 C.ar    1  UNL1        0.0166
      6 N           8.4416   39.2570    4.4357 N.ar    1  UNL1       -0.2290
      7 C          13.4892   39.7556    8.4794 C.3     1  UNL1        0.0219
      8 C          12.1825   39.4156    7.7649 C.3     1  UNL1        0.0078
      9 C          12.0691   40.2025    6.4562 C.3     1  UNL1        0.0424
     10 C          12.1610   41.7046    6.7258 C.3     1  UNL1        0.0979
     11 C          13.5672   41.2560    8.7483 C.3     1  UNL1        0.0936
     12 N          13.3669   41.9856    7.4991 N.pl3   1  UNL1       -0.2779
     13 C          14.3469   42.9188    7.0235 C.ar    1  UNL1        0.2202
     14 C          16.6000   43.6421    6.9198 C.ar    1  UNL1        0.1034
     15 C          16.2319   44.7123    6.1069 C.ar    1  UNL1        0.0414
     16 C          14.8875   44.8537    5.7688 C.ar    1  UNL1        0.1034
     17 N          15.6577   42.7691    7.3616 N.ar    1  UNL1       -0.2121
     18 N          13.9737   43.9606    6.2297 N.ar    1  UNL1       -0.2121
     19 N           7.1391   40.1329    6.2998 N.pl3   1  UNL1       -0.2680
     20 H           6.4923   39.3943    6.3736 H       1  UNL1        0.1565
     21 C           6.7374   41.4001    6.8341 C.ar    1  UNL1        0.2218
     22 C           6.5827   43.7468    6.5717 C.ar    1  UNL1        0.1034
     23 C           5.9801   43.8600    7.8231 C.ar    1  UNL1        0.0414
     24 C           5.7700   42.6977    8.5624 C.ar    1  UNL1        0.1034
     25 N           6.9488   42.5257    6.1017 N.ar    1  UNL1       -0.2120
     26 N           6.1497   41.4946    8.0584 N.ar    1  UNL1       -0.2120
@<TRIPOS>BOND
     1     7     8    1
     2     8     9    1
     3     9    10    1
     4     9     1    1
     5    10    12    1
     6    11    12    1
     7    11     7    1
     8    13    18   ar
     9    14    17   ar
    10    15    16   ar
    11     2     3   ar
    12     3    19    1
    13     4     6   ar
    14     5     1   ar
    15    21    26   ar
    16    22    25   ar
    17    23    24   ar
    18    12    13    1
    19    19    21    1
    20    13    17   ar
    21    14    15   ar
    22    16    18   ar
    23     1     2   ar
    24     3     6   ar
    25     4     5   ar
    26    21    25   ar
    27    22    23   ar
    28    24    26   ar
    29    19    20    1
@<TRIPOS>MOLECULE
Molport-020-284-131 MCULE-4152218137 PubChem-110258992
 26 29 0 0 0
SMALL
GASTEIGER

@<TRIPOS>ATOM
      1 C          14.0422   41.0806    8.0306 C.ar    1  UNL1       -0.0165
      2 C          12.8008   41.1393    7.3932 C.ar    1  UNL1        0.0303
      3 C          12.5449   42.1555    6.4692 C.ar    1  UNL1        0.1340
      4 C          14.7259   43.0447    6.8059 C.ar    1  UNL1        0.1000
      5 C          15.0157   42.0436    7.7340 C.ar    1  UNL1        0.0166
      6 N          13.5094   43.0797    6.1990 N.ar    1  UNL1       -0.2290
      7 C          13.6751   38.9963   11.2376 C.3     1  UNL1        0.0219
      8 C          13.4107   40.1329   10.2519 C.3     1  UNL1        0.0078
      9 C          14.3045   39.9876    9.0171 C.3     1  UNL1        0.0424
     10 C          15.7780   39.9588    9.4240 C.3     1  UNL1        0.0979
     11 C          15.1471   38.9809   11.6410 C.3     1  UNL1        0.0936
     12 N          15.9799   38.9323   10.4423 N.pl3   1  UNL1       -0.2779
     13 C          16.9377   37.8820   10.2505 C.ar    1  UNL1        0.2202
     14 C          17.7475   36.0629    8.9677 C.ar    1  UNL1        0.1034
     15 C          18.7813   35.8635    9.8805 C.ar    1  UNL1        0.0414
     16 C          18.8603   36.7095   10.9849 C.ar    1  UNL1        0.1034
     17 N          16.8490   37.0620    9.1666 N.ar    1  UNL1       -0.2121
     18 N          17.9433   37.6979   11.1503 N.ar    1  UNL1       -0.2121
     19 N          11.2670   42.2028    5.8233 N.pl3   1  UNL1       -0.2680
     20 H          10.8703   43.0936    5.6879 H       1  UNL1        0.1565
     21 C          10.5100   41.0800    5.3553 C.ar    1  UNL1        0.2218
     22 C          10.2727   39.3065    3.8066 C.ar    1  UNL1        0.1034
     23 C           9.0856   38.9120    4.4206 C.ar    1  UNL1        0.0414
     24 C           8.6363   39.6416    5.5196 C.ar    1  UNL1        0.1034
     25 N          10.9604   40.3776    4.2820 N.ar    1  UNL1       -0.2120
     26 N           9.3519   40.7067    5.9657 N.ar    1  UNL1       -0.2120
@<TRIPOS>BOND
     1     7     8    1
     2     8     9    1
     3     9    10    1
     4     9     1    1
     5    10    12    1
     6    11    12    1
     7    11     7    1
     8    13    18   ar
     9    14    17   ar
    10    15    16   ar
    11     2     3   ar
    12     3    19    1
    13     4     6   ar
    14     5     1   ar
    15    21    26   ar
    16    22    25   ar
    17    23    24   ar
    18    12    13    1
    19    19    21    1
    20    13    17   ar
    21    14    15   ar
    22    16    18   ar
    23     1     2   ar
    24     3     6   ar
    25     4     5   ar
    26    21    25   ar
    27    22    23   ar
    28    24    26   ar
    29    19    20    1
@<TRIPOS>MOLECULE
Molport-020-284-131 MCULE-4152218137 PubChem-110258992
 26 29 0 0 0
SMALL
GASTEIGER

@<TRIPOS>ATOM
      1 C          12.9381   38.1093    9.5268 C.ar    1  UNL1       -0.0165
      2 C          13.9462   37.4388    8.8305 C.ar    1  UNL1        0.0303
      3 C          14.0730   36.0535    8.9602 C.ar    1  UNL1        0.1340
      4 C          12.2218   35.9990   10.4537 C.ar    1  UNL1        0.1000
      5 C          12.0661   37.3818   10.3475 C.ar    1  UNL1        0.0166
      6 N          13.2115   35.3700    9.7652 N.ar    1  UNL1       -0.2290
      7 C          11.3839   41.6110    9.8204 C.3     1  UNL1        0.0219
      8 C          11.4859   40.0931    9.9585 C.3     1  UNL1        0.0078
      9 C          12.8118   39.5921    9.3792 C.3     1  UNL1        0.0424
     10 C          12.9479   40.0105    7.9150 C.3     1  UNL1        0.0979
     11 C          11.5152   42.0164    8.3548 C.3     1  UNL1        0.0936
     12 N          12.7430   41.4515    7.8015 N.pl3   1  UNL1       -0.2779
     13 C          13.7389   42.2928    7.2030 C.ar    1  UNL1        0.2202
     14 C          14.3466   43.8979    5.5707 C.ar    1  UNL1        0.1034
     15 C          15.6536   43.9123    6.0537 C.ar    1  UNL1        0.0414
     16 C          15.9689   43.0878    7.1318 C.ar    1  UNL1        0.1034
     17 N          13.4173   43.0938    6.1495 N.ar    1  UNL1       -0.2121
     18 N          15.0127   42.2972    7.6847 N.ar    1  UNL1       -0.2121
     19 N          15.1119   35.3796    8.2398 N.pl3   1  UNL1       -0.2680
     20 H          14.8491   34.9133    7.4135 H       1  UNL1        0.1565
     21 C          16.4960   35.3180    8.6047 C.ar    1  UNL1        0.2218
     22 C          18.3627   34.0091    9.2390 C.ar    1  UNL1        0.1034
     23 C          19.1561   35.1525    9.3113 C.ar    1  UNL1        0.0414
     24 C          18.5705   36.3823    9.0174 C.ar    1  UNL1        0.1034
     25 N          17.0538   34.1113    8.8889 N.ar    1  UNL1       -0.2120
     26 N          17.2584   36.4439    8.6710 N.ar    1  UNL1       -0.2120
@<TRIPOS>BOND
     1     7     8    1
     2     8     9    1
     3     9    10    1
     4     9     1    1
     5    10    12    1
     6    11    12    1
     7    11     7    1
     8    13    18   ar
     9    14    17   ar
    10    15    16   ar
    11     2     3   ar
    12     3    19    1
    13     4     6   ar
    14     5     1   ar
    15    21    26   ar
    16    22    25   ar
    17    23    24   ar
    18    12    13    1
    19    19    21    1
    20    13    17   ar
    21    14    15   ar
    22    16    18   ar
    23     1     2   ar
    24     3     6   ar
    25     4     5   ar
    26    21    25   ar
    27    22    23   ar
    28    24    26   ar
    29    19    20    1
@<TRIPOS>MOLECULE
Molport-020-284-131 MCULE-4152218137 PubChem-110258992
 26 29 0 0 0
SMALL
GASTEIGER

@<TRIPOS>ATOM
      1 C          13.8451   38.8872    9.9469 C.ar    1  UNL1       -0.0165
      2 C          15.0293   38.3323    9.4564 C.ar    1  UNL1        0.0303
      3 C          15.3833   37.0293    9.8153 C.ar    1  UNL1        0.1340
      4 C          13.4114   36.8296   11.1315 C.ar    1  UNL1        0.1000
      5 C          13.0269   38.1279   10.7937 C.ar    1  UNL1        0.0166
      6 N          14.5694   36.3124   10.6405 N.ar    1  UNL1       -0.2290
      7 C          11.6509   42.0062    9.4761 C.3     1  UNL1        0.0219
      8 C          12.0040   40.5706    9.8607 C.3     1  UNL1        0.0078
      9 C          13.4765   40.2826    9.5550 C.3     1  UNL1        0.0424
     10 C          13.7747   40.5334    8.0766 C.3     1  UNL1        0.0979
     11 C          11.9471   42.2431    7.9977 C.3     1  UNL1        0.0936
     12 N          13.3319   41.8764    7.7137 N.pl3   1  UNL1       -0.2779
     13 C          14.2426   42.8217    7.1353 C.ar    1  UNL1        0.2202
     14 C          16.4540   43.6240    6.8586 C.ar    1  UNL1        0.1034
     15 C          15.9942   44.6384    6.0212 C.ar    1  UNL1        0.0414
     16 C          14.6273   44.7120    5.7609 C.ar    1  UNL1        0.1034
     17 N          15.5764   42.7385    7.3981 N.ar    1  UNL1       -0.2121
     18 N          13.7801   43.8085    6.3186 N.ar    1  UNL1       -0.2121
     19 N          16.6009   36.4735    9.3044 N.pl3   1  UNL1       -0.2680
     20 H          17.3510   36.3904    9.9365 H       1  UNL1        0.1565
     21 C          16.8333   36.0268    7.9630 C.ar    1  UNL1        0.2218
     22 C          15.9622   35.1474    5.9462 C.ar    1  UNL1        0.1034
     23 C          17.2342   35.1578    5.3771 C.ar    1  UNL1        0.0414
     24 C          18.2991   35.6187    6.1487 C.ar    1  UNL1        0.1034
     25 N          15.7849   35.5796    7.2220 N.ar    1  UNL1       -0.2120
     26 N          18.0819   36.0429    7.4209 N.ar    1  UNL1       -0.2120
@<TRIPOS>BOND
     1     7     8    1
     2     8     9    1
     3     9    10    1
     4     9     1    1
     5    10    12    1
     6    11    12    1
     7    11     7    1
     8    13    18   ar
     9    14    17   ar
    10    15    16   ar
    11     2     3   ar
    12     3    19    1
    13     4     6   ar
    14     5     1   ar
    15    21    26   ar
    16    22    25   ar
    17    23    24   ar
    18    12    13    1
    19    19    21    1
    20    13    17   ar
    21    14    15   ar
    22    16    18   ar
    23     1     2   ar
    24     3     6   ar
    25     4     5   ar
    26    21    25   ar
    27    22    23   ar
    28    24    26   ar
    29    19    20    1
