@<TRIPOS>MOLECULE
MolPort-007-723-061 6818060 ChemDiv-E157-3209 MCULE-6979807899 PubChem-22517673 ZINC000006818060 ZINC06818060
 23 25 0 0 0
SMALL
GASTEIGER

@<TRIPOS>ATOM
      1 C           6.9501   41.5037   10.0966 C.ar    1  UNL1        0.1643
      2 C           4.9435   41.2584    9.5278 C.ar    1  UNL1        0.2195
      3 C           3.7471   41.8488   11.4880 C.ar    1  UNL1        0.1882
      4 N           6.9334   41.0762    8.8048 N.ar    1  UNL1       -0.1310
      5 N           5.6542   40.9200    8.4387 N.ar    1  UNL1       -0.1202
      6 N           5.0955   41.9505   11.6618 N.ar    1  UNL1       -0.1399
      7 N           5.6958   41.6093   10.5337 N.ar    1  UNL1       -0.1881
      8 S           3.3117   41.3194    9.8963 S.2     1  UNL1       -0.0111
      9 C           1.4065   42.3015   12.4247 C.2     1  UNL1        0.2509
     10 N           2.8286   42.1563   12.5437 N.am    1  UNL1       -0.2592
     11 O           0.8376   42.1591   11.3085 O.2     1  UNL1       -0.2698
     12 H           3.2123   42.2804   13.4418 H       1  UNL1        0.1571
     13 C           0.6028   42.6205   13.6182 C.ar    1  UNL1        0.0539
     14 C          -0.2077   41.6410   14.2118 C.ar    1  UNL1        0.0068
     15 C          -0.9696   41.9446   15.3437 C.ar    1  UNL1        0.0298
     16 C          -0.9268   43.2298   15.8906 C.ar    1  UNL1        0.1401
     17 C          -0.1223   44.2114   15.3061 C.ar    1  UNL1        0.0298
     18 C           0.6397   43.9079   14.1740 C.ar    1  UNL1        0.0068
     19 F          -1.6650   43.5240   16.9875 F       1  UNL1       -0.2042
     20 C           8.1740   41.7815   10.9058 C.3     1  UNL1        0.0677
     21 C          10.4878   41.1428   10.2351 C.3     1  UNL1        0.0005
     22 C           9.3537   42.1252   10.0113 C.3     1  UNL1        0.0076
     23 C           9.8381   43.5214   10.3397 C.3     1  UNL1        0.0005
@<TRIPOS>BOND
     1    21    22    1
     2    22    23    1
     3    22    20    1
     4    20     1    1
     5     2     8   ar
     6     3     8   ar
     7     3    10    1
     8     9    13    1
     9    14    15   ar
    10    16    19    1
    11    16    17   ar
    12    18    13   ar
    13     4     5   ar
    14    10     9   am
    15     7     6   ar
    16     7     1   ar
    17     7     2   ar
    18     1     4   ar
    19     2     5   ar
    20     3     6   ar
    21     9    11    2
    22    13    14   ar
    23    15    16   ar
    24    17    18   ar
    25    10    12    1
@<TRIPOS>MOLECULE
MolPort-007-723-061 6818060 ChemDiv-E157-3209 MCULE-6979807899 PubChem-22517673 ZINC000006818060 ZINC06818060
 23 25 0 0 0
SMALL
GASTEIGER

@<TRIPOS>ATOM
      1 C           4.0397   42.9483    9.2057 C.ar    1  UNL1        0.1643
      2 C           5.6507   44.1018    8.5099 C.ar    1  UNL1        0.2195
      3 C           7.5275   42.7074    8.9045 C.ar    1  UNL1        0.1882
      4 N           3.5403   44.1319    8.7567 N.ar    1  UNL1       -0.1310
      5 N           4.5660   44.8695    8.3109 N.ar    1  UNL1       -0.1202
      6 N           6.3618   42.1187    9.2960 N.ar    1  UNL1       -0.1399
      7 N           5.3625   42.9484    9.0461 N.ar    1  UNL1       -0.1881
      8 S           7.2921   44.2910    8.2410 S.2     1  UNL1       -0.0111
      9 C           9.8635   42.4330    9.9190 C.2     1  UNL1        0.2509
     10 N           8.7895   42.0450    9.0508 N.am    1  UNL1       -0.2592
     11 O           9.7575   43.4501   10.6565 O.2     1  UNL1       -0.2698
     12 H           8.9342   41.2422    8.4997 H       1  UNL1        0.1571
     13 C          11.1025   41.6355    9.9489 C.ar    1  UNL1        0.0539
     14 C          11.3289   40.7126   10.9812 C.ar    1  UNL1        0.0068
     15 C          12.5045   39.9567   11.0086 C.ar    1  UNL1        0.0298
     16 C          13.4623   40.1179   10.0041 C.ar    1  UNL1        0.1401
     17 C          13.2451   41.0345    8.9721 C.ar    1  UNL1        0.0298
     18 C          12.0694   41.7906    8.9446 C.ar    1  UNL1        0.0068
     19 F          14.6013   39.3854   10.0306 F       1  UNL1       -0.2042
     20 C           3.2415   41.8393    9.8080 C.3     1  UNL1        0.0677
     21 C           3.9116   40.2592   11.6151 C.3     1  UNL1        0.0005
     22 C           3.5406   41.6940   11.2911 C.3     1  UNL1        0.0076
     23 C           2.3117   42.0780   12.0874 C.3     1  UNL1        0.0005
@<TRIPOS>BOND
     1    21    22    1
     2    22    23    1
     3    22    20    1
     4    20     1    1
     5     2     8   ar
     6     3     8   ar
     7     3    10    1
     8     9    13    1
     9    14    15   ar
    10    16    19    1
    11    16    17   ar
    12    18    13   ar
    13     4     5   ar
    14    10     9   am
    15     7     6   ar
    16     7     1   ar
    17     7     2   ar
    18     1     4   ar
    19     2     5   ar
    20     3     6   ar
    21     9    11    2
    22    13    14   ar
    23    15    16   ar
    24    17    18   ar
    25    10    12    1
@<TRIPOS>MOLECULE
MolPort-007-723-061 6818060 ChemDiv-E157-3209 MCULE-6979807899 PubChem-22517673 ZINC000006818060 ZINC06818060
 23 25 0 0 0
SMALL
GASTEIGER

@<TRIPOS>ATOM
      1 C           6.0605   42.6417    9.0427 C.ar    1  UNL1        0.1643
      2 C           7.7371   43.8852    9.2723 C.ar    1  UNL1        0.2195
      3 C           9.4655   42.3664    9.8452 C.ar    1  UNL1        0.1882
      4 N           5.6629   43.9226    8.8119 N.ar    1  UNL1       -0.1310
      5 N           6.7311   44.7182    8.9566 N.ar    1  UNL1       -0.1202
      6 N           8.2737   41.7342    9.6482 N.ar    1  UNL1       -0.1399
      7 N           7.3611   42.6378    9.3322 N.ar    1  UNL1       -0.1881
      8 S           9.3624   44.0818    9.6217 S.2     1  UNL1       -0.0111
      9 C          11.7661   41.3561    9.3479 C.2     1  UNL1        0.2509
     10 N          10.6496   41.6427   10.2016 N.am    1  UNL1       -0.2592
     11 O          11.7758   41.7486    8.1498 O.2     1  UNL1       -0.2698
     12 H          10.7022   41.3082   11.1260 H       1  UNL1        0.1571
     13 C          12.9127   40.5955    9.8762 C.ar    1  UNL1        0.0539
     14 C          14.1428   40.6042    9.2015 C.ar    1  UNL1        0.0068
     15 C          15.2296   39.8823    9.7034 C.ar    1  UNL1        0.0298
     16 C          15.0945   39.1466   10.8836 C.ar    1  UNL1        0.1401
     17 C          13.8731   39.1324   11.5622 C.ar    1  UNL1        0.0298
     18 C          12.7861   39.8543   11.0603 C.ar    1  UNL1        0.0068
     19 F          16.1476   38.4472   11.3700 F       1  UNL1       -0.2042
     20 C           5.1789   41.4370    9.0077 C.3     1  UNL1        0.0677
     21 C           4.2963   40.4656   11.1264 C.3     1  UNL1        0.0005
     22 C           4.0886   41.5273   10.0628 C.3     1  UNL1        0.0076
     23 C           2.7413   41.3121    9.4071 C.3     1  UNL1        0.0005
@<TRIPOS>BOND
     1    21    22    1
     2    22    23    1
     3    22    20    1
     4    20     1    1
     5     2     8   ar
     6     3     8   ar
     7     3    10    1
     8     9    13    1
     9    14    15   ar
    10    16    19    1
    11    16    17   ar
    12    18    13   ar
    13     4     5   ar
    14    10     9   am
    15     7     6   ar
    16     7     1   ar
    17     7     2   ar
    18     1     4   ar
    19     2     5   ar
    20     3     6   ar
    21     9    11    2
    22    13    14   ar
    23    15    16   ar
    24    17    18   ar
    25    10    12    1
@<TRIPOS>MOLECULE
MolPort-007-723-061 6818060 ChemDiv-E157-3209 MCULE-6979807899 PubChem-22517673 ZINC000006818060 ZINC06818060
 23 25 0 0 0
SMALL
GASTEIGER

@<TRIPOS>ATOM
      1 C          11.9511   39.3803    9.8456 C.ar    1  UNL1        0.1643
      2 C          10.6383   38.8483    8.2953 C.ar    1  UNL1        0.2195
      3 C           8.8260   40.3508    8.5786 C.ar    1  UNL1        0.1882
      4 N          12.5124   38.3461    9.1620 N.ar    1  UNL1       -0.1310
      5 N          11.6774   38.0054    8.1714 N.ar    1  UNL1       -0.1202
      6 N           9.8027   40.5465    9.5094 N.ar    1  UNL1       -0.1399
      7 N          10.7772   39.6793    9.2908 N.ar    1  UNL1       -0.1881
      8 S           9.1967   39.0684    7.4734 S.2     1  UNL1       -0.0111
      9 C           7.5119   42.4909    8.0742 C.2     1  UNL1        0.2509
     10 N           7.6350   41.1472    8.5609 N.am    1  UNL1       -0.2592
     11 O           8.5112   43.0963    7.6005 O.2     1  UNL1       -0.2698
     12 H           6.8185   40.7299    8.9192 H       1  UNL1        0.1571
     13 C           6.2051   43.1702    8.1286 C.ar    1  UNL1        0.0539
     14 C           5.1760   42.6675    8.9390 C.ar    1  UNL1        0.0068
     15 C           3.9369   43.3125    8.9898 C.ar    1  UNL1        0.0298
     16 C           3.7176   44.4650    8.2308 C.ar    1  UNL1        0.1401
     17 C           4.7369   44.9728    7.4210 C.ar    1  UNL1        0.0298
     18 C           5.9762   44.3277    7.3701 C.ar    1  UNL1        0.0068
     19 F           2.5170   45.0901    8.2800 F       1  UNL1       -0.2042
     20 C          12.5385   40.0536   11.0421 C.3     1  UNL1        0.0677
     21 C          14.7368   39.8466    9.8861 C.3     1  UNL1        0.0005
     22 C          14.0058   39.6927   11.2065 C.3     1  UNL1        0.0076
     23 C          14.1169   38.2550   11.6674 C.3     1  UNL1        0.0005
@<TRIPOS>BOND
     1    21    22    1
     2    22    23    1
     3    22    20    1
     4    20     1    1
     5     2     8   ar
     6     3     8   ar
     7     3    10    1
     8     9    13    1
     9    14    15   ar
    10    16    19    1
    11    16    17   ar
    12    18    13   ar
    13     4     5   ar
    14    10     9   am
    15     7     6   ar
    16     7     1   ar
    17     7     2   ar
    18     1     4   ar
    19     2     5   ar
    20     3     6   ar
    21     9    11    2
    22    13    14   ar
    23    15    16   ar
    24    17    18   ar
    25    10    12    1
@<TRIPOS>MOLECULE
MolPort-007-723-061 6818060 ChemDiv-E157-3209 MCULE-6979807899 PubChem-22517673 ZINC000006818060 ZINC06818060
 23 25 0 0 0
SMALL
GASTEIGER

@<TRIPOS>ATOM
      1 C           7.1227   41.3804    6.1536 C.ar    1  UNL1        0.1643
      2 C           8.6197   39.9479    5.8119 C.ar    1  UNL1        0.2195
      3 C          10.6197   41.2178    5.9119 C.ar    1  UNL1        0.1882
      4 N           6.5130   40.1780    5.9679 N.ar    1  UNL1       -0.1310
      5 N           7.4660   39.2618    5.7509 N.ar    1  UNL1       -0.1202
      6 N           9.5139   41.9882    6.1176 N.ar    1  UNL1       -0.1399
      7 N           8.4410   41.2177    6.0496 N.ar    1  UNL1       -0.1881
      8 S          10.2364   39.5500    5.6381 S.2     1  UNL1       -0.0111
      9 C          12.7266   42.0774    7.0879 C.2     1  UNL1        0.2509
     10 N          11.9385   41.7775    5.9275 N.am    1  UNL1       -0.2592
     11 O          12.2777   41.8532    8.2445 O.2     1  UNL1       -0.2698
     12 H          12.3450   41.9763    5.0531 H       1  UNL1        0.1571
     13 C          14.0736   42.6534    6.9266 C.ar    1  UNL1        0.0539
     14 C          14.2840   43.7375    6.0612 C.ar    1  UNL1        0.0068
     15 C          15.5620   44.2830    5.9089 C.ar    1  UNL1        0.0298
     16 C          16.6390   43.7487    6.6209 C.ar    1  UNL1        0.1401
     17 C          16.4386   42.6692    7.4852 C.ar    1  UNL1        0.0298
     18 C          15.1605   42.1235    7.6374 C.ar    1  UNL1        0.0068
     19 F          17.8773   44.2773    6.4735 F       1  UNL1       -0.2042
     20 C           6.4287   42.6788    6.4036 C.3     1  UNL1        0.0677
     21 C           6.1906   41.9775    8.7833 C.3     1  UNL1        0.0005
     22 C           6.5823   43.1100    7.8529 C.3     1  UNL1        0.0076
     23 C           5.6835   44.2991    8.1171 C.3     1  UNL1        0.0005
@<TRIPOS>BOND
     1    21    22    1
     2    22    23    1
     3    22    20    1
     4    20     1    1
     5     2     8   ar
     6     3     8   ar
     7     3    10    1
     8     9    13    1
     9    14    15   ar
    10    16    19    1
    11    16    17   ar
    12    18    13   ar
    13     4     5   ar
    14    10     9   am
    15     7     6   ar
    16     7     1   ar
    17     7     2   ar
    18     1     4   ar
    19     2     5   ar
    20     3     6   ar
    21     9    11    2
    22    13    14   ar
    23    15    16   ar
    24    17    18   ar
    25    10    12    1
@<TRIPOS>MOLECULE
MolPort-007-723-061 6818060 ChemDiv-E157-3209 MCULE-6979807899 PubChem-22517673 ZINC000006818060 ZINC06818060
 23 25 0 0 0
SMALL
GASTEIGER

@<TRIPOS>ATOM
      1 C           7.8235   40.6402    6.6964 C.ar    1  UNL1        0.1643
      2 C           9.2560   40.0915    5.2624 C.ar    1  UNL1        0.2195
      3 C          11.1862   41.2933    5.9352 C.ar    1  UNL1        0.1882
      4 N           7.2281   39.7868    5.8194 N.ar    1  UNL1       -0.1310
      5 N           8.1404   39.4340    4.9039 N.ar    1  UNL1       -0.1202
      6 N          10.1273   41.5215    6.7631 N.ar    1  UNL1       -0.1399
      7 N           9.0917   40.8216    6.3304 N.ar    1  UNL1       -0.1881
      8 S          10.8078   40.2010    4.6440 S.2     1  UNL1       -0.0111
      9 C          13.4088   41.5895    7.1733 C.2     1  UNL1        0.2509
     10 N          12.4571   41.9184    6.1517 N.am    1  UNL1       -0.2592
     11 O          13.1703   40.6687    8.0008 O.2     1  UNL1       -0.2698
     12 H          12.7020   42.6474    5.5371 H       1  UNL1        0.1571
     13 C          14.6774   42.3352    7.2566 C.ar    1  UNL1        0.0539
     14 C          15.7096   41.8900    8.0961 C.ar    1  UNL1        0.0068
     15 C          16.9124   42.5981    8.1744 C.ar    1  UNL1        0.0298
     16 C          17.0920   43.7564    7.4138 C.ar    1  UNL1        0.1401
     17 C          16.0694   44.2069    6.5748 C.ar    1  UNL1        0.0298
     18 C          14.8664   43.4989    6.4965 C.ar    1  UNL1        0.0068
     19 F          18.2574   44.4424    7.4895 F       1  UNL1       -0.2042
     20 C           7.1584   41.2930    7.8632 C.3     1  UNL1        0.0677
     21 C           6.8617   42.9668    6.0406 C.3     1  UNL1        0.0005
     22 C           6.7565   42.7214    7.5340 C.3     1  UNL1        0.0076
     23 C           7.6797   43.6783    8.2577 C.3     1  UNL1        0.0005
@<TRIPOS>BOND
     1    21    22    1
     2    22    23    1
     3    22    20    1
     4    20     1    1
     5     2     8   ar
     6     3     8   ar
     7     3    10    1
     8     9    13    1
     9    14    15   ar
    10    16    19    1
    11    16    17   ar
    12    18    13   ar
    13     4     5   ar
    14    10     9   am
    15     7     6   ar
    16     7     1   ar
    17     7     2   ar
    18     1     4   ar
    19     2     5   ar
    20     3     6   ar
    21     9    11    2
    22    13    14   ar
    23    15    16   ar
    24    17    18   ar
    25    10    12    1
@<TRIPOS>MOLECULE
MolPort-007-723-061 6818060 ChemDiv-E157-3209 MCULE-6979807899 PubChem-22517673 ZINC000006818060 ZINC06818060
 23 25 0 0 0
SMALL
GASTEIGER

@<TRIPOS>ATOM
      1 C          17.5040   33.7573    3.7386 C.ar    1  UNL1        0.1643
      2 C          16.7878   32.7692    5.4476 C.ar    1  UNL1        0.2195
      3 C          15.9008   34.5317    6.7624 C.ar    1  UNL1        0.1882
      4 N          17.7672   32.4302    3.5925 N.ar    1  UNL1       -0.1310
      5 N          17.3101   31.7970    4.6810 N.ar    1  UNL1       -0.1202
      6 N          16.4205   34.9832    5.5857 N.ar    1  UNL1       -0.1399
      7 N          16.8933   33.9513    4.9068 N.ar    1  UNL1       -0.1881
      8 S          16.0442   32.8145    6.9467 S.2     1  UNL1       -0.0111
      9 C          16.0029   36.3724    8.5408 C.2     1  UNL1        0.2509
     10 N          15.3113   35.4251    7.7149 N.am    1  UNL1       -0.2592
     11 O          17.2570   36.4851    8.4767 O.2     1  UNL1       -0.2698
     12 H          14.3325   35.3848    7.8125 H       1  UNL1        0.1571
     13 C          15.2404   37.2216    9.4733 C.ar    1  UNL1        0.0539
     14 C          13.9899   36.8045    9.9538 C.ar    1  UNL1        0.0068
     15 C          13.2675   37.6109   10.8382 C.ar    1  UNL1        0.0298
     16 C          13.7900   38.8401   11.2486 C.ar    1  UNL1        0.1401
     17 C          15.0347   39.2633   10.7752 C.ar    1  UNL1        0.0298
     18 C          15.7573   38.4570    9.8907 C.ar    1  UNL1        0.0068
     19 F          13.0901   39.6213   12.1055 F       1  UNL1       -0.2042
     20 C          17.8662   34.8290    2.7638 C.3     1  UNL1        0.0677
     21 C          16.6959   37.0294    2.7501 C.3     1  UNL1        0.0005
     22 C          17.7851   36.2033    3.4079 C.3     1  UNL1        0.0076
     23 C          19.1121   36.9120    3.2392 C.3     1  UNL1        0.0005
@<TRIPOS>BOND
     1    21    22    1
     2    22    23    1
     3    22    20    1
     4    20     1    1
     5     2     8   ar
     6     3     8   ar
     7     3    10    1
     8     9    13    1
     9    14    15   ar
    10    16    19    1
    11    16    17   ar
    12    18    13   ar
    13     4     5   ar
    14    10     9   am
    15     7     6   ar
    16     7     1   ar
    17     7     2   ar
    18     1     4   ar
    19     2     5   ar
    20     3     6   ar
    21     9    11    2
    22    13    14   ar
    23    15    16   ar
    24    17    18   ar
    25    10    12    1
@<TRIPOS>MOLECULE
MolPort-007-723-061 6818060 ChemDiv-E157-3209 MCULE-6979807899 PubChem-22517673 ZINC000006818060 ZINC06818060
 23 25 0 0 0
SMALL
GASTEIGER

@<TRIPOS>ATOM
      1 C          14.9407   42.1232    7.5551 C.ar    1  UNL1        0.1643
      2 C          13.8555   40.9923    8.9526 C.ar    1  UNL1        0.2195
      3 C          11.6196   41.7020    8.6069 C.ar    1  UNL1        0.1882
      4 N          15.8250   41.3456    8.2373 N.ar    1  UNL1       -0.1310
      5 N          15.1351   40.6219    9.1289 N.ar    1  UNL1       -0.1202
      6 N          12.4919   42.3346    7.7717 N.ar    1  UNL1       -0.1399
      7 N          13.7132   41.8909    8.0182 N.ar    1  UNL1       -0.1881
      8 S          12.4004   40.5757    9.6678 S.2     1  UNL1       -0.0111
      9 C           9.5185   42.9701    9.3406 C.2     1  UNL1        0.2509
     10 N          10.2140   41.9774    8.5735 N.am    1  UNL1       -0.2592
     11 O          10.1423   43.7116   10.1473 O.2     1  UNL1       -0.2698
     12 H           9.6703   41.4299    7.9620 H       1  UNL1        0.1571
     13 C           8.0612   43.1245    9.1847 C.ar    1  UNL1        0.0539
     14 C           7.5305   44.2575    8.5495 C.ar    1  UNL1        0.0068
     15 C           6.1480   44.4030    8.4022 C.ar    1  UNL1        0.0298
     16 C           5.2860   43.4168    8.8887 C.ar    1  UNL1        0.1401
     17 C           5.8057   42.2851    9.5224 C.ar    1  UNL1        0.0298
     18 C           7.1883   42.1395    9.6699 C.ar    1  UNL1        0.0068
     19 F           3.9464   43.5577    8.7459 F       1  UNL1       -0.2042
     20 C          15.2893   43.1012    6.4818 C.3     1  UNL1        0.0677
     21 C          17.6296   43.8414    6.0500 C.3     1  UNL1        0.0005
     22 C          16.4077   44.0279    6.9296 C.3     1  UNL1        0.0076
     23 C          16.7772   43.7072    8.3622 C.3     1  UNL1        0.0005
@<TRIPOS>BOND
     1    21    22    1
     2    22    23    1
     3    22    20    1
     4    20     1    1
     5     2     8   ar
     6     3     8   ar
     7     3    10    1
     8     9    13    1
     9    14    15   ar
    10    16    19    1
    11    16    17   ar
    12    18    13   ar
    13     4     5   ar
    14    10     9   am
    15     7     6   ar
    16     7     1   ar
    17     7     2   ar
    18     1     4   ar
    19     2     5   ar
    20     3     6   ar
    21     9    11    2
    22    13    14   ar
    23    15    16   ar
    24    17    18   ar
    25    10    12    1
@<TRIPOS>MOLECULE
MolPort-007-723-061 6818060 ChemDiv-E157-3209 MCULE-6979807899 PubChem-22517673 ZINC000006818060 ZINC06818060
 23 25 0 0 0
SMALL
GASTEIGER

@<TRIPOS>ATOM
      1 C          13.5432   35.6288    9.5453 C.ar    1  UNL1        0.1643
      2 C          12.1874   37.1726    9.9792 C.ar    1  UNL1        0.2195
      3 C          13.0684   39.0211    8.7837 C.ar    1  UNL1        0.1882
      4 N          12.5902   35.1240   10.3753 N.ar    1  UNL1       -0.1310
      5 N          11.7229   36.1067   10.6528 N.ar    1  UNL1       -0.1202
      6 N          13.8252   37.8990    8.6205 N.ar    1  UNL1       -0.1399
      7 N          13.2766   36.9129    9.3105 N.ar    1  UNL1       -0.1881
      8 S          11.6971   38.7644    9.8120 S.2     1  UNL1       -0.0111
      9 C          14.6678   40.9507    8.2551 C.2     1  UNL1        0.2509
     10 N          13.4152   40.2594    8.1519 N.am    1  UNL1       -0.2592
     11 O          15.6046   40.4810    8.9561 O.2     1  UNL1       -0.2698
     12 H          12.7238   40.6782    7.5899 H       1  UNL1        0.1571
     13 C          14.8615   42.2221    7.5352 C.ar    1  UNL1        0.0539
     14 C          16.0431   42.9601    7.7015 C.ar    1  UNL1        0.0068
     15 C          16.2257   44.1659    7.0182 C.ar    1  UNL1        0.0298
     16 C          15.2283   44.6426    6.1636 C.ar    1  UNL1        0.1401
     17 C          14.0484   43.9140    5.9918 C.ar    1  UNL1        0.0298
     18 C          13.8656   42.7081    6.6751 C.ar    1  UNL1        0.0068
     19 F          15.4052   45.8109    5.5015 F       1  UNL1       -0.2042
     20 C          14.7156   34.8766    9.0071 C.3     1  UNL1        0.0677
     21 C          15.9088   35.1929    6.8419 C.3     1  UNL1        0.0005
     22 C          15.6307   35.7903    8.2084 C.3     1  UNL1        0.0076
     23 C          16.9399   35.9566    8.9501 C.3     1  UNL1        0.0005
@<TRIPOS>BOND
     1    21    22    1
     2    22    23    1
     3    22    20    1
     4    20     1    1
     5     2     8   ar
     6     3     8   ar
     7     3    10    1
     8     9    13    1
     9    14    15   ar
    10    16    19    1
    11    16    17   ar
    12    18    13   ar
    13     4     5   ar
    14    10     9   am
    15     7     6   ar
    16     7     1   ar
    17     7     2   ar
    18     1     4   ar
    19     2     5   ar
    20     3     6   ar
    21     9    11    2
    22    13    14   ar
    23    15    16   ar
    24    17    18   ar
    25    10    12    1
@<TRIPOS>MOLECULE
MolPort-007-723-061 6818060 ChemDiv-E157-3209 MCULE-6979807899 PubChem-22517673 ZINC000006818060 ZINC06818060
 23 25 0 0 0
SMALL
GASTEIGER

@<TRIPOS>ATOM
      1 C          16.3577   42.2304    8.4110 C.ar    1  UNL1        0.1643
      2 C          15.4840   40.4027    8.9644 C.ar    1  UNL1        0.2195
      3 C          13.2919   40.5567    8.0738 C.ar    1  UNL1        0.1882
      4 N          17.2845   41.5218    9.1116 N.ar    1  UNL1       -0.1310
      5 N          16.7301   40.3545    9.4649 N.ar    1  UNL1       -0.1202
      6 N          14.0309   41.6714    7.8090 N.ar    1  UNL1       -0.1399
      7 N          15.2360   41.5157    8.3313 N.ar    1  UNL1       -0.1881
      8 S          14.1688   39.3672    8.9789 S.2     1  UNL1       -0.0111
      9 C          10.8010   40.0819    8.4356 C.2     1  UNL1        0.2509
     10 N          11.9352   40.4324    7.6303 N.am    1  UNL1       -0.2592
     11 O          10.9361   39.8445    9.6664 O.2     1  UNL1       -0.2698
     12 H          11.7640   40.6049    6.6763 H       1  UNL1        0.1571
     13 C           9.4653   39.9983    7.8183 C.ar    1  UNL1        0.0539
     14 C           9.1926   39.0272    6.8430 C.ar    1  UNL1        0.0068
     15 C           7.9254   38.9489    6.2581 C.ar    1  UNL1        0.0298
     16 C           6.9214   39.8407    6.6442 C.ar    1  UNL1        0.1401
     17 C           7.1840   40.8109    7.6149 C.ar    1  UNL1        0.0298
     18 C           8.4514   40.8894    8.1998 C.ar    1  UNL1        0.0068
     19 F           5.6935   39.7647    6.0776 F       1  UNL1       -0.2042
     20 C          16.5524   43.5995    7.8474 C.3     1  UNL1        0.0677
     21 C          17.6299   43.8008    5.6091 C.3     1  UNL1        0.0005
     22 C          16.3175   43.6105    6.3458 C.3     1  UNL1        0.0076
     23 C          15.3850   44.7504    5.9955 C.3     1  UNL1        0.0005
@<TRIPOS>BOND
     1    21    22    1
     2    22    23    1
     3    22    20    1
     4    20     1    1
     5     2     8   ar
     6     3     8   ar
     7     3    10    1
     8     9    13    1
     9    14    15   ar
    10    16    19    1
    11    16    17   ar
    12    18    13   ar
    13     4     5   ar
    14    10     9   am
    15     7     6   ar
    16     7     1   ar
    17     7     2   ar
    18     1     4   ar
    19     2     5   ar
    20     3     6   ar
    21     9    11    2
    22    13    14   ar
    23    15    16   ar
    24    17    18   ar
    25    10    12    1
