@<TRIPOS>MOLECULE
MolPort-007-723-659 6818404 CHEMBL1525458 ChemDiv-E157-7188 MCULE-3916121415 PubChem-16017544 ZINC000006818404 ZINC06818404
 27 28 0 0 0
SMALL
GASTEIGER

@<TRIPOS>ATOM
      1 S           9.1162   41.8953    8.2574 S.O2    1  UNL1        0.1010
      2 O           8.0710   41.1639    7.4628 O.2     1  UNL1       -0.1477
      3 O           8.6566   43.3062    8.4969 O.2     1  UNL1       -0.1477
      4 C          10.6195   41.9404    7.3594 C.ar    1  UNL1        0.2593
      5 C          12.8349   42.1919    6.5073 C.ar    1  UNL1        0.1893
      6 N          10.7900   41.3576    6.1530 N.ar    1  UNL1       -0.1187
      7 N          12.0251   41.4995    5.6757 N.ar    1  UNL1       -0.1239
      8 S          12.0347   42.6719    7.9067 S.2     1  UNL1       -0.0102
      9 C          14.7007   43.7491    5.7758 C.2     1  UNL1        0.2276
     10 N          14.2080   42.4862    6.2349 N.am    1  UNL1       -0.2627
     11 O          13.9200   44.7172    5.5743 O.2     1  UNL1       -0.2747
     12 H          14.8640   41.7653    6.3739 H       1  UNL1        0.1568
     13 C          16.1651   43.9297    5.5619 C.3     1  UNL1        0.0854
     14 C          16.8594   44.3100    6.8601 C.3     1  UNL1        0.0091
     15 C          18.3352   43.9887    6.7514 C.3     1  UNL1        0.0005
     16 C          16.2677   43.5350    8.0233 C.3     1  UNL1        0.0005
     17 N           9.3707   41.0735    9.7694 N.pl3   1  UNL1       -0.1891
     18 C          10.5460   40.2644    9.9559 C.ar    1  UNL1        0.0649
     19 C          10.7461   39.0645    9.2348 C.ar    1  UNL1       -0.0073
     20 C           9.7332   38.5392    8.2770 C.3     1  UNL1        0.0324
     21 C          11.9016   38.3063    9.4494 C.ar    1  UNL1       -0.0072
     22 C          12.8618   38.7253   10.3720 C.ar    1  UNL1       -0.0221
     23 C          14.0872   37.9132   10.5900 C.3     1  UNL1        0.0310
     24 C          12.6670   39.9022   11.0953 C.ar    1  UNL1       -0.0030
     25 C          11.5159   40.6647   10.8887 C.ar    1  UNL1        0.0155
     26 C           8.3983   42.0178   11.8073 C.3     1  UNL1        0.0252
     27 C           8.2646   40.9717   10.7151 C.3     1  UNL1        0.1160
@<TRIPOS>BOND
     1    26    27    1
     2    27    17    1
     3    19    21   ar
     4    20    19    1
     5    22    24   ar
     6    23    22    1
     7    25    18   ar
     8     4     8   ar
     9     5    10    1
    10     5     8   ar
    11    13     9    1
    12    13    14    1
    13    14    15    1
    14    14    16    1
    15    17    18    1
    16     6     7   ar
    17    10     9   am
    18     1    17    1
    19     1     4    1
    20    18    19   ar
    21    21    22   ar
    22    24    25   ar
    23     4     6   ar
    24     5     7   ar
    25     9    11    2
    26     1     2    2
    27     1     3    2
    28    10    12    1
@<TRIPOS>MOLECULE
MolPort-007-723-659 6818404 CHEMBL1525458 ChemDiv-E157-7188 MCULE-3916121415 PubChem-16017544 ZINC000006818404 ZINC06818404
 27 28 0 0 0
SMALL
GASTEIGER

@<TRIPOS>ATOM
      1 S          12.0648   38.9502    9.4689 S.O2    1  UNL1        0.1010
      2 O          11.2656   37.9734    8.6529 O.2     1  UNL1       -0.1477
      3 O          11.1540   39.6372   10.4476 O.2     1  UNL1       -0.1477
      4 C          12.7734   40.1596    8.4185 C.ar    1  UNL1        0.2593
      5 C          14.0974   41.7699    7.2559 C.ar    1  UNL1        0.1893
      6 N          12.1924   40.5979    7.2807 N.ar    1  UNL1       -0.1187
      7 N          12.9292   41.4981    6.6326 N.ar    1  UNL1       -0.1239
      8 S          14.2724   40.8839    8.6749 S.2     1  UNL1       -0.0102
      9 C          14.7752   43.9946    6.2398 C.2     1  UNL1        0.2276
     10 N          15.0712   42.6997    6.7729 N.am    1  UNL1       -0.2627
     11 O          13.5881   44.4088    6.1598 O.2     1  UNL1       -0.2747
     12 H          16.0169   42.4283    6.8099 H       1  UNL1        0.1568
     13 C          15.8927   44.8784    5.8007 C.3     1  UNL1        0.0854
     14 C          17.1758   44.5386    6.5425 C.3     1  UNL1        0.0091
     15 C          17.9176   43.4545    5.7892 C.3     1  UNL1        0.0005
     16 C          16.8623   44.0437    7.9426 C.3     1  UNL1        0.0005
     17 N          13.3299   38.1009   10.3082 N.pl3   1  UNL1       -0.1891
     18 C          13.8374   36.8639    9.7762 C.ar    1  UNL1        0.0649
     19 C          13.1952   35.6283   10.0224 C.ar    1  UNL1       -0.0073
     20 C          11.9859   35.5239   10.8861 C.3     1  UNL1        0.0324
     21 C          13.7243   34.4487    9.4887 C.ar    1  UNL1       -0.0072
     22 C          14.8843   34.4810    8.7127 C.ar    1  UNL1       -0.0221
     23 C          15.4362   33.2219    8.1483 C.3     1  UNL1        0.0310
     24 C          15.5300   35.6944    8.4740 C.ar    1  UNL1       -0.0030
     25 C          15.0098   36.8768    9.0039 C.ar    1  UNL1        0.0155
     26 C          15.1387   38.7857   11.8082 C.3     1  UNL1        0.0252
     27 C          13.6557   38.4878   11.6766 C.3     1  UNL1        0.1160
@<TRIPOS>BOND
     1    26    27    1
     2    27    17    1
     3    19    21   ar
     4    20    19    1
     5    22    24   ar
     6    23    22    1
     7    25    18   ar
     8     4     8   ar
     9     5    10    1
    10     5     8   ar
    11    13     9    1
    12    13    14    1
    13    14    15    1
    14    14    16    1
    15    17    18    1
    16     6     7   ar
    17    10     9   am
    18     1    17    1
    19     1     4    1
    20    18    19   ar
    21    21    22   ar
    22    24    25   ar
    23     4     6   ar
    24     5     7   ar
    25     9    11    2
    26     1     2    2
    27     1     3    2
    28    10    12    1
@<TRIPOS>MOLECULE
MolPort-007-723-659 6818404 CHEMBL1525458 ChemDiv-E157-7188 MCULE-3916121415 PubChem-16017544 ZINC000006818404 ZINC06818404
 27 28 0 0 0
SMALL
GASTEIGER

@<TRIPOS>ATOM
      1 S          10.5036   40.8945    5.8198 S.O2    1  UNL1        0.1010
      2 O          10.6424   40.0298    4.5984 O.2     1  UNL1       -0.1477
      3 O           9.8451   42.1898    5.4353 O.2     1  UNL1       -0.1477
      4 C          12.0875   41.2456    6.4803 C.ar    1  UNL1        0.2593
      5 C          14.1992   42.1186    7.1704 C.ar    1  UNL1        0.1893
      6 N          12.7269   40.4454    7.3608 N.ar    1  UNL1       -0.1187
      7 N          13.9063   40.9305    7.7445 N.ar    1  UNL1       -0.1239
      8 S          12.9780   42.6329    6.1344 S.2     1  UNL1       -0.0102
      9 C          16.1000   43.6274    6.4275 C.2     1  UNL1        0.2276
     10 N          15.4025   42.8542    7.4095 N.am    1  UNL1       -0.2627
     11 O          15.6776   43.7076    5.2432 O.2     1  UNL1       -0.2747
     12 H          15.7795   42.8267    8.3186 H       1  UNL1        0.1568
     13 C          17.3290   44.3738    6.8212 C.3     1  UNL1        0.0854
     14 C          18.0238   43.6950    7.9910 C.3     1  UNL1        0.0091
     15 C          17.9901   42.1944    7.7912 C.3     1  UNL1        0.0005
     16 C          17.3235   44.0376    9.2933 C.3     1  UNL1        0.0005
     17 N           9.5523   40.0590    7.0126 N.pl3   1  UNL1       -0.1891
     18 C           9.6887   40.3990    8.4042 C.ar    1  UNL1        0.0649
     19 C           8.9310   41.4367    8.9949 C.ar    1  UNL1       -0.0073
     20 C           7.9842   42.2727    8.2051 C.3     1  UNL1        0.0324
     21 C           9.0973   41.7367   10.3508 C.ar    1  UNL1       -0.0072
     22 C          10.0075   41.0183   11.1282 C.ar    1  UNL1       -0.0221
     23 C          10.1740   41.3437   12.5686 C.3     1  UNL1        0.0310
     24 C          10.7666   40.0002   10.5506 C.ar    1  UNL1       -0.0030
     25 C          10.6083   39.6947    9.1975 C.ar    1  UNL1        0.0155
     26 C           7.4308   39.1475    6.2007 C.3     1  UNL1        0.0252
     27 C           8.8531   38.8365    6.6316 C.3     1  UNL1        0.1160
@<TRIPOS>BOND
     1    26    27    1
     2    27    17    1
     3    19    21   ar
     4    20    19    1
     5    22    24   ar
     6    23    22    1
     7    25    18   ar
     8     4     8   ar
     9     5    10    1
    10     5     8   ar
    11    13     9    1
    12    13    14    1
    13    14    15    1
    14    14    16    1
    15    17    18    1
    16     6     7   ar
    17    10     9   am
    18     1    17    1
    19     1     4    1
    20    18    19   ar
    21    21    22   ar
    22    24    25   ar
    23     4     6   ar
    24     5     7   ar
    25     9    11    2
    26     1     2    2
    27     1     3    2
    28    10    12    1
@<TRIPOS>MOLECULE
MolPort-007-723-659 6818404 CHEMBL1525458 ChemDiv-E157-7188 MCULE-3916121415 PubChem-16017544 ZINC000006818404 ZINC06818404
 27 28 0 0 0
SMALL
GASTEIGER

@<TRIPOS>ATOM
      1 S           8.4963   41.1971    7.1272 S.O2    1  UNL1        0.1010
      2 O           8.2302   39.7994    7.6112 O.2     1  UNL1       -0.1477
      3 O           8.2252   41.2680    5.6504 O.2     1  UNL1       -0.1477
      4 C          10.1743   41.6127    7.4096 C.ar    1  UNL1        0.2593
      5 C          12.5177   42.0641    7.3637 C.ar    1  UNL1        0.1893
      6 N          10.6241   42.1834    8.5481 N.ar    1  UNL1       -0.1187
      7 N          11.9319   42.4334    8.5243 N.ar    1  UNL1       -0.1239
      8 S          11.4119   41.3933    6.2883 S.2     1  UNL1       -0.0102
      9 C          14.4991   43.3754    6.4715 C.2     1  UNL1        0.2276
     10 N          13.9107   42.2205    7.0786 N.am    1  UNL1       -0.2627
     11 O          13.7938   44.3643    6.1366 O.2     1  UNL1       -0.2747
     12 H          14.5103   41.4773    7.3182 H       1  UNL1        0.1568
     13 C          15.9743   43.4201    6.2603 C.3     1  UNL1        0.0854
     14 C          16.7069   43.5681    7.5844 C.3     1  UNL1        0.0091
     15 C          18.0831   44.1477    7.3331 C.3     1  UNL1        0.0005
     16 C          16.8537   42.2178    8.2617 C.3     1  UNL1        0.0005
     17 N           7.4726   42.3098    7.9876 N.pl3   1  UNL1       -0.1891
     18 C           6.5528   41.8172    8.9786 C.ar    1  UNL1        0.0649
     19 C           6.9140   41.7096   10.3416 C.ar    1  UNL1       -0.0073
     20 C           8.2804   42.0512   10.8270 C.3     1  UNL1        0.0324
     21 C           5.9900   41.2223   11.2716 C.ar    1  UNL1       -0.0072
     22 C           4.7105   40.8402   10.8645 C.ar    1  UNL1       -0.0221
     23 C           3.7358   40.3264   11.8616 C.3     1  UNL1        0.0310
     24 C           4.3498   40.9329    9.5200 C.ar    1  UNL1       -0.0030
     25 C           5.2662   41.4170    8.5844 C.ar    1  UNL1        0.0155
     26 C           6.8816   44.6021    8.6095 C.3     1  UNL1        0.0252
     27 C           7.3437   43.6777    7.4971 C.3     1  UNL1        0.1160
@<TRIPOS>BOND
     1    26    27    1
     2    27    17    1
     3    19    21   ar
     4    20    19    1
     5    22    24   ar
     6    23    22    1
     7    25    18   ar
     8     4     8   ar
     9     5    10    1
    10     5     8   ar
    11    13     9    1
    12    13    14    1
    13    14    15    1
    14    14    16    1
    15    17    18    1
    16     6     7   ar
    17    10     9   am
    18     1    17    1
    19     1     4    1
    20    18    19   ar
    21    21    22   ar
    22    24    25   ar
    23     4     6   ar
    24     5     7   ar
    25     9    11    2
    26     1     2    2
    27     1     3    2
    28    10    12    1
@<TRIPOS>MOLECULE
MolPort-007-723-659 6818404 CHEMBL1525458 ChemDiv-E157-7188 MCULE-3916121415 PubChem-16017544 ZINC000006818404 ZINC06818404
 27 28 0 0 0
SMALL
GASTEIGER

@<TRIPOS>ATOM
      1 S           7.3698   41.7257    6.8842 S.O2    1  UNL1        0.1010
      2 O           6.8997   40.3660    7.3189 O.2     1  UNL1       -0.1477
      3 O           6.6872   42.0959    5.5972 O.2     1  UNL1       -0.1477
      4 C           9.1000   41.6958    6.6125 C.ar    1  UNL1        0.2593
      5 C          11.4848   41.6321    6.6904 C.ar    1  UNL1        0.1893
      6 N           9.6654   41.6020    5.3895 N.ar    1  UNL1       -0.1187
      7 N          10.9960   41.5689    5.4318 N.ar    1  UNL1       -0.1239
      8 S          10.2573   41.7354    7.8357 S.2     1  UNL1       -0.0102
      9 C          13.7969   42.6776    6.7406 C.2     1  UNL1        0.2276
     10 N          12.8777   41.6156    7.0158 N.am    1  UNL1       -0.2627
     11 O          13.4170   43.7345    6.1695 O.2     1  UNL1       -0.2747
     12 H          13.2308   40.8128    7.4630 H       1  UNL1        0.1568
     13 C          15.2199   42.5423    7.1642 C.3     1  UNL1        0.0854
     14 C          15.9424   43.8769    7.0702 C.3     1  UNL1        0.0091
     15 C          16.6283   43.9812    5.7242 C.3     1  UNL1        0.0005
     16 C          16.9842   43.9931    8.1678 C.3     1  UNL1        0.0005
     17 N           6.9997   42.8875    8.1250 N.pl3   1  UNL1       -0.1891
     18 C           5.9681   42.6037    9.0873 C.ar    1  UNL1        0.0649
     19 C           4.6980   43.2219    9.0214 C.ar    1  UNL1       -0.0073
     20 C           4.3664   44.2392    7.9849 C.3     1  UNL1        0.0324
     21 C           3.7248   42.9199    9.9795 C.ar    1  UNL1       -0.0072
     22 C           3.9976   42.0107   11.0031 C.ar    1  UNL1       -0.0221
     23 C           2.9552   41.6951   12.0142 C.3     1  UNL1        0.0310
     24 C           5.2517   41.4046   11.0816 C.ar    1  UNL1       -0.0030
     25 C           6.2297   41.7011   10.1303 C.ar    1  UNL1        0.0155
     26 C           8.1829   44.6787    9.3007 C.3     1  UNL1        0.0252
     27 C           7.5233   44.2438    8.0041 C.3     1  UNL1        0.1160
@<TRIPOS>BOND
     1    26    27    1
     2    27    17    1
     3    19    21   ar
     4    20    19    1
     5    22    24   ar
     6    23    22    1
     7    25    18   ar
     8     4     8   ar
     9     5    10    1
    10     5     8   ar
    11    13     9    1
    12    13    14    1
    13    14    15    1
    14    14    16    1
    15    17    18    1
    16     6     7   ar
    17    10     9   am
    18     1    17    1
    19     1     4    1
    20    18    19   ar
    21    21    22   ar
    22    24    25   ar
    23     4     6   ar
    24     5     7   ar
    25     9    11    2
    26     1     2    2
    27     1     3    2
    28    10    12    1
@<TRIPOS>MOLECULE
MolPort-007-723-659 6818404 CHEMBL1525458 ChemDiv-E157-7188 MCULE-3916121415 PubChem-16017544 ZINC000006818404 ZINC06818404
 27 28 0 0 0
SMALL
GASTEIGER

@<TRIPOS>ATOM
      1 S          11.3479   42.2044    9.2279 S.O2    1  UNL1        0.1010
      2 O          11.6159   41.6551   10.6010 O.2     1  UNL1       -0.1477
      3 O          11.7892   43.6403    9.1760 O.2     1  UNL1       -0.1477
      4 C           9.6315   42.1328    8.8857 C.ar    1  UNL1        0.2593
      5 C           7.2448   42.1266    8.8569 C.ar    1  UNL1        0.1893
      6 N           9.1193   42.0160    7.6415 N.ar    1  UNL1       -0.1187
      7 N           7.7877   42.0099    7.6246 N.ar    1  UNL1       -0.1239
      8 S           8.4219   42.2445   10.0526 S.2     1  UNL1       -0.0102
      9 C           5.0056   43.3072    9.0405 C.2     1  UNL1        0.2276
     10 N           5.8388   42.1460    9.1195 N.am    1  UNL1       -0.2627
     11 O           5.4826   44.4291    8.7226 O.2     1  UNL1       -0.2747
     12 H           5.4117   41.2963    9.3740 H       1  UNL1        0.1568
     13 C           3.5447   43.1796    9.3091 C.3     1  UNL1        0.0854
     14 C           3.2418   41.8907   10.0568 C.3     1  UNL1        0.0091
     15 C           2.3641   41.0068    9.1959 C.3     1  UNL1        0.0005
     16 C           2.5193   42.1908   11.3574 C.3     1  UNL1        0.0005
     17 N          12.2119   41.2595    8.0503 N.pl3   1  UNL1       -0.1891
     18 C          13.0096   40.1399    8.4756 C.ar    1  UNL1        0.0649
     19 C          12.4731   38.8346    8.5652 C.ar    1  UNL1       -0.0073
     20 C          11.0408   38.5466    8.2738 C.3     1  UNL1        0.0324
     21 C          13.2829   37.7750    8.9866 C.ar    1  UNL1       -0.0072
     22 C          14.6203   37.9958    9.3204 C.ar    1  UNL1       -0.0221
     23 C          15.4725   36.8622    9.7643 C.3     1  UNL1        0.0310
     24 C          15.1545   39.2824    9.2452 C.ar    1  UNL1       -0.0030
     25 C          14.3531   40.3464    8.8268 C.ar    1  UNL1        0.0155
     26 C          13.6490   42.5673    6.5619 C.3     1  UNL1        0.0252
     27 C          12.3582   41.7788    6.6948 C.3     1  UNL1        0.1160
@<TRIPOS>BOND
     1    26    27    1
     2    27    17    1
     3    19    21   ar
     4    20    19    1
     5    22    24   ar
     6    23    22    1
     7    25    18   ar
     8     4     8   ar
     9     5    10    1
    10     5     8   ar
    11    13     9    1
    12    13    14    1
    13    14    15    1
    14    14    16    1
    15    17    18    1
    16     6     7   ar
    17    10     9   am
    18     1    17    1
    19     1     4    1
    20    18    19   ar
    21    21    22   ar
    22    24    25   ar
    23     4     6   ar
    24     5     7   ar
    25     9    11    2
    26     1     2    2
    27     1     3    2
    28    10    12    1
@<TRIPOS>MOLECULE
MolPort-007-723-659 6818404 CHEMBL1525458 ChemDiv-E157-7188 MCULE-3916121415 PubChem-16017544 ZINC000006818404 ZINC06818404
 27 28 0 0 0
SMALL
GASTEIGER

@<TRIPOS>ATOM
      1 S          12.3694   40.0154    8.1399 S.O2    1  UNL1        0.1010
      2 O          12.4023   40.4329    6.6965 O.2     1  UNL1       -0.1477
      3 O          12.1904   38.5251    8.2187 O.2     1  UNL1       -0.1477
      4 C          11.0200   40.7855    8.9489 C.ar    1  UNL1        0.2593
      5 C           8.9654   41.4498    9.9662 C.ar    1  UNL1        0.1893
      6 N          11.1049   41.9762    9.5807 N.ar    1  UNL1       -0.1187
      7 N           9.9584   42.3488   10.1465 N.ar    1  UNL1       -0.1239
      8 S           9.4779   40.1195    9.0736 S.2     1  UNL1       -0.0102
      9 C           6.5359   42.1444    9.7284 C.2     1  UNL1        0.2276
     10 N           7.6356   41.6060   10.4697 N.am    1  UNL1       -0.2627
     11 O           6.6812   42.5305    8.5380 O.2     1  UNL1       -0.2747
     12 H           7.4638   41.3216   11.3964 H       1  UNL1        0.1568
     13 C           5.1906   42.2209   10.3664 C.3     1  UNL1        0.0854
     14 C           4.3911   40.9556   10.0985 C.3     1  UNL1        0.0091
     15 C           3.1123   41.3157    9.3720 C.3     1  UNL1        0.0005
     16 C           4.0420   40.2641   11.4037 C.3     1  UNL1        0.0005
     17 N          13.8539   40.4915    8.9117 N.pl3   1  UNL1       -0.1891
     18 C          14.7115   41.4591    8.2799 C.ar    1  UNL1        0.0649
     19 C          16.0826   41.5661    8.6089 C.ar    1  UNL1       -0.0073
     20 C          16.7115   40.7206    9.6620 C.3     1  UNL1        0.0324
     21 C          16.8799   42.5231    7.9728 C.ar    1  UNL1       -0.0072
     22 C          16.3318   43.3761    7.0132 C.ar    1  UNL1       -0.0221
     23 C          17.1888   44.3875    6.3416 C.3     1  UNL1        0.0310
     24 C          14.9776   43.2844    6.6907 C.ar    1  UNL1       -0.0030
     25 C          14.1739   42.3329    7.3215 C.ar    1  UNL1        0.0155
     26 C          13.3649   39.7139   11.1804 C.3     1  UNL1        0.0252
     27 C          14.3560   39.7007   10.0302 C.3     1  UNL1        0.1160
@<TRIPOS>BOND
     1    26    27    1
     2    27    17    1
     3    19    21   ar
     4    20    19    1
     5    22    24   ar
     6    23    22    1
     7    25    18   ar
     8     4     8   ar
     9     5    10    1
    10     5     8   ar
    11    13     9    1
    12    13    14    1
    13    14    15    1
    14    14    16    1
    15    17    18    1
    16     6     7   ar
    17    10     9   am
    18     1    17    1
    19     1     4    1
    20    18    19   ar
    21    21    22   ar
    22    24    25   ar
    23     4     6   ar
    24     5     7   ar
    25     9    11    2
    26     1     2    2
    27     1     3    2
    28    10    12    1
@<TRIPOS>MOLECULE
MolPort-007-723-659 6818404 CHEMBL1525458 ChemDiv-E157-7188 MCULE-3916121415 PubChem-16017544 ZINC000006818404 ZINC06818404
 27 28 0 0 0
SMALL
GASTEIGER

@<TRIPOS>ATOM
      1 S          10.9613   40.8673   10.4047 S.O2    1  UNL1        0.1010
      2 O          11.8074   40.3885   11.5508 O.2     1  UNL1       -0.1477
      3 O          11.5697   42.1157    9.8298 O.2     1  UNL1       -0.1477
      4 C           9.3479   41.2413   10.9750 C.ar    1  UNL1        0.2593
      5 C           7.0580   41.8215   11.3177 C.ar    1  UNL1        0.1893
      6 N           8.9456   41.0692   12.2528 N.ar    1  UNL1       -0.1187
      7 N           7.6688   41.3950   12.4454 N.ar    1  UNL1       -0.1239
      8 S           8.1010   41.8142    9.9981 S.2     1  UNL1       -0.0102
      9 C           4.5636   41.3740   11.4548 C.2     1  UNL1        0.2276
     10 N           5.6897   42.2329   11.2485 N.am    1  UNL1       -0.2627
     11 O           4.7179   40.1519   11.7195 O.2     1  UNL1       -0.2747
     12 H           5.5090   43.1787   11.0433 H       1  UNL1        0.1568
     13 C           3.1870   41.9423   11.3851 C.3     1  UNL1        0.0854
     14 C           2.7694   42.1752    9.9418 C.3     1  UNL1        0.0091
     15 C           2.8341   40.8656    9.1843 C.3     1  UNL1        0.0005
     16 C           3.6955   43.1780    9.2783 C.3     1  UNL1        0.0005
     17 N          10.8719   39.6211    9.1942 N.pl3   1  UNL1       -0.1891
     18 C          11.8012   38.5229    9.2268 C.ar    1  UNL1        0.0649
     19 C          13.1047   38.6343    8.6902 C.ar    1  UNL1       -0.0073
     20 C          13.5789   39.8750    8.0155 C.3     1  UNL1        0.0324
     21 C          13.9752   37.5407    8.7397 C.ar    1  UNL1       -0.0072
     22 C          13.5668   36.3366    9.3160 C.ar    1  UNL1       -0.0221
     23 C          14.5009   35.1819    9.3657 C.3     1  UNL1        0.0310
     24 C          12.2787   36.2149    9.8379 C.ar    1  UNL1       -0.0030
     25 C          11.4026   37.3010    9.7917 C.ar    1  UNL1        0.0155
     26 C           9.4594   38.5440    7.5103 C.3     1  UNL1        0.0252
     27 C          10.0614   39.8481    8.0026 C.3     1  UNL1        0.1160
@<TRIPOS>BOND
     1    26    27    1
     2    27    17    1
     3    19    21   ar
     4    20    19    1
     5    22    24   ar
     6    23    22    1
     7    25    18   ar
     8     4     8   ar
     9     5    10    1
    10     5     8   ar
    11    13     9    1
    12    13    14    1
    13    14    15    1
    14    14    16    1
    15    17    18    1
    16     6     7   ar
    17    10     9   am
    18     1    17    1
    19     1     4    1
    20    18    19   ar
    21    21    22   ar
    22    24    25   ar
    23     4     6   ar
    24     5     7   ar
    25     9    11    2
    26     1     2    2
    27     1     3    2
    28    10    12    1
@<TRIPOS>MOLECULE
MolPort-007-723-659 6818404 CHEMBL1525458 ChemDiv-E157-7188 MCULE-3916121415 PubChem-16017544 ZINC000006818404 ZINC06818404
 27 28 0 0 0
SMALL
GASTEIGER

@<TRIPOS>ATOM
      1 S          12.0293   40.1062    9.1644 S.O2    1  UNL1        0.1010
      2 O          12.5517   40.8630   10.3532 O.2     1  UNL1       -0.1477
      3 O          10.5412   40.2972    9.0727 O.2     1  UNL1       -0.1477
      4 C          12.3645   38.3976    9.3557 C.ar    1  UNL1        0.2593
      5 C          13.2271   36.1742    9.4544 C.ar    1  UNL1        0.1893
      6 N          11.5223   37.5313    9.9593 N.ar    1  UNL1       -0.1187
      7 N          12.0017   36.2900   10.0127 N.ar    1  UNL1       -0.1239
      8 S          13.7844   37.6432    8.8537 S.2     1  UNL1       -0.0102
      9 C          15.0541   34.7051    8.4821 C.2     1  UNL1        0.2276
     10 N          13.9659   34.9516    9.3786 N.am    1  UNL1       -0.2627
     11 O          15.4409   35.5882    7.6710 O.2     1  UNL1       -0.2747
     12 H          13.7061   34.2246    9.9894 H       1  UNL1        0.1568
     13 C          15.7599   33.3928    8.5309 C.3     1  UNL1        0.0854
     14 C          15.9895   32.8487    7.1298 C.3     1  UNL1        0.0091
     15 C          15.2123   31.5603    6.9593 C.3     1  UNL1        0.0005
     16 C          17.4647   32.5711    6.9052 C.3     1  UNL1        0.0005
     17 N          12.8075   40.6898    7.7221 N.pl3   1  UNL1       -0.1891
     18 C          14.0763   41.3624    7.8149 C.ar    1  UNL1        0.0649
     19 C          14.3768   42.4972    7.0264 C.ar    1  UNL1       -0.0073
     20 C          13.4212   43.0353    6.0182 C.3     1  UNL1        0.0324
     21 C          15.6240   43.1188    7.1455 C.ar    1  UNL1       -0.0072
     22 C          16.5774   42.6271    8.0390 C.ar    1  UNL1       -0.0221
     23 C          17.8983   43.2971    8.1595 C.3     1  UNL1        0.0310
     24 C          16.2928   41.5017    8.8127 C.ar    1  UNL1       -0.0030
     25 C          15.0509   40.8739    8.6994 C.ar    1  UNL1        0.0155
     26 C          10.7515   41.5279    6.6920 C.3     1  UNL1        0.0252
     27 C          12.0422   40.7563    6.4819 C.3     1  UNL1        0.1160
@<TRIPOS>BOND
     1    26    27    1
     2    27    17    1
     3    19    21   ar
     4    20    19    1
     5    22    24   ar
     6    23    22    1
     7    25    18   ar
     8     4     8   ar
     9     5    10    1
    10     5     8   ar
    11    13     9    1
    12    13    14    1
    13    14    15    1
    14    14    16    1
    15    17    18    1
    16     6     7   ar
    17    10     9   am
    18     1    17    1
    19     1     4    1
    20    18    19   ar
    21    21    22   ar
    22    24    25   ar
    23     4     6   ar
    24     5     7   ar
    25     9    11    2
    26     1     2    2
    27     1     3    2
    28    10    12    1
@<TRIPOS>MOLECULE
MolPort-007-723-659 6818404 CHEMBL1525458 ChemDiv-E157-7188 MCULE-3916121415 PubChem-16017544 ZINC000006818404 ZINC06818404
 27 28 0 0 0
SMALL
GASTEIGER

@<TRIPOS>ATOM
      1 S           8.1152   40.7430    6.9708 S.O2    1  UNL1        0.1010
      2 O           7.8948   39.2693    7.1670 O.2     1  UNL1       -0.1477
      3 O           7.3819   41.1920    5.7379 O.2     1  UNL1       -0.1477
      4 C           9.8238   41.0630    6.7545 C.ar    1  UNL1        0.2593
      5 C          12.1957   41.3070    6.8637 C.ar    1  UNL1        0.1893
      6 N          10.3590   41.5345    5.6075 N.ar    1  UNL1       -0.1187
      7 N          11.6820   41.6733    5.6684 N.ar    1  UNL1       -0.1239
      8 S          11.0015   40.7822    7.9255 S.2     1  UNL1       -0.0102
      9 C          14.3934   42.5408    7.1622 C.2     1  UNL1        0.2276
     10 N          13.5868   41.3589    7.1931 N.am    1  UNL1       -0.2627
     11 O          13.9048   43.6527    6.8272 O.2     1  UNL1       -0.2747
     12 H          14.0224   40.5177    7.4613 H       1  UNL1        0.1568
     13 C          15.8273   42.4591    7.5624 C.3     1  UNL1        0.0854
     14 C          16.5002   43.8178    7.4472 C.3     1  UNL1        0.0091
     15 C          17.1165   43.9562    6.0709 C.3     1  UNL1        0.0005
     16 C          17.5893   43.9593    8.4947 C.3     1  UNL1        0.0005
     17 N           7.5387   41.6032    8.3686 N.pl3   1  UNL1       -0.1891
     18 C           6.4548   42.5405    8.2362 C.ar    1  UNL1        0.0649
     19 C           5.2195   42.3484    8.8970 C.ar    1  UNL1       -0.0073
     20 C           4.9463   41.1429    9.7285 C.3     1  UNL1        0.0324
     21 C           4.1909   43.2827    8.7381 C.ar    1  UNL1       -0.0072
     22 C           4.3741   44.4065    7.9305 C.ar    1  UNL1       -0.0221
     23 C           3.2753   45.3943    7.7710 C.3     1  UNL1        0.0310
     24 C           5.5860   44.5979    7.2664 C.ar    1  UNL1       -0.0030
     25 C           6.6179   43.6697    7.4181 C.ar    1  UNL1        0.0155
     26 C           8.7482   43.0008    9.9731 C.3     1  UNL1        0.0252
     27 C           8.3391   41.5902    9.5882 C.3     1  UNL1        0.1160
@<TRIPOS>BOND
     1    26    27    1
     2    27    17    1
     3    19    21   ar
     4    20    19    1
     5    22    24   ar
     6    23    22    1
     7    25    18   ar
     8     4     8   ar
     9     5    10    1
    10     5     8   ar
    11    13     9    1
    12    13    14    1
    13    14    15    1
    14    14    16    1
    15    17    18    1
    16     6     7   ar
    17    10     9   am
    18     1    17    1
    19     1     4    1
    20    18    19   ar
    21    21    22   ar
    22    24    25   ar
    23     4     6   ar
    24     5     7   ar
    25     9    11    2
    26     1     2    2
    27     1     3    2
    28    10    12    1
