@<TRIPOS>MOLECULE
MolPort-002-716-149 4580359 CSSS00132972401 ChemDiv-8013-0823 MCULE-3996002319 PubChem-135403603 ZINC000004580359 ZINC04580359
 26 27 0 0 0
SMALL
GASTEIGER

@<TRIPOS>ATOM
      1 C          11.8901   41.7405    7.7227 C.2     1  UNL1        0.3966
      2 N          12.5276   42.8676    7.8242 N.2     1  UNL1        0.1575
      3 C          10.3976   40.2428    4.4834 C.3     1  UNL1        0.1247
      4 C          10.5311   41.1427    5.6580 C.2     1  UNL1        0.3112
      5 O           9.6205   41.9759    5.9090 O.2     1  UNL1       -0.2469
      6 N          11.7173   41.0878    6.4561 N.am    1  UNL1       -0.1650
      7 H          12.4737   40.5615    6.1096 H       1  UNL1        0.3015
      8 C          11.2639   41.1672    8.9241 C.ar    1  UNL1        0.2430
      9 C          10.3902   41.7658    9.7989 C.ar    1  UNL1        0.2042
     10 O          10.7283   39.7922   10.4383 O.2     1  UNL1       -0.2400
     11 N          11.4565   39.9097    9.3615 N.ar    1  UNL1       -0.0391
     12 N          10.0667   40.8729   10.7489 N.ar    1  UNL1       -0.0327
     13 C           8.5818   43.4679    9.2830 C.2     1  UNL1        0.2278
     14 C           8.1918   44.9012    9.2509 C.3     1  UNL1        0.0950
     15 O           7.7525   42.5914    8.9226 O.2     1  UNL1       -0.2747
     16 N           9.8941   43.1067    9.7231 N.am    1  UNL1       -0.2652
     17 H          10.5006   43.8335    9.9938 H       1  UNL1        0.1564
     18 O          13.0497   43.5247    6.7324 O.2     1  UNL1       -0.2748
     19 C          14.1938   43.0146    6.0668 C.3     1  UNL1        0.2977
     20 C          15.3653   43.0079    6.9915 C.ar    1  UNL1        0.0540
     21 C          16.2121   44.1234    7.0842 C.ar    1  UNL1        0.1398
     22 C          17.2872   44.1101    7.9783 C.ar    1  UNL1        0.0294
     23 C          17.5163   42.9906    8.7835 C.ar    1  UNL1        0.0023
     24 C          16.6690   41.8825    8.6977 C.ar    1  UNL1       -0.0001
     25 C          15.5933   41.8925    7.8051 C.ar    1  UNL1        0.0017
     26 F          15.9988   45.2194    6.3138 F       1  UNL1       -0.2044
@<TRIPOS>BOND
     1     3     4    1
     2     4     6   am
     3     1     8    1
     4    19    18    1
     5    19    20    1
     6    21    26    1
     7    21    22   ar
     8    23    24   ar
     9    25    20   ar
    10     9    16    1
    11     9     8   ar
    12    14    13    1
    13    10    12   ar
    14     6     1    1
    15     2    18    1
    16    11    10   ar
    17    16    13   am
    18     4     5    2
    19     1     2    2
    20    20    21   ar
    21    22    23   ar
    22    24    25   ar
    23     8    11   ar
    24     9    12   ar
    25    13    15    2
    26     6     7    1
    27    16    17    1
@<TRIPOS>MOLECULE
MolPort-002-716-149 4580359 CSSS00132972401 ChemDiv-8013-0823 MCULE-3996002319 PubChem-135403603 ZINC000004580359 ZINC04580359
 26 27 0 0 0
SMALL
GASTEIGER

@<TRIPOS>ATOM
      1 C          10.8062   41.3369    6.7414 C.2     1  UNL1        0.3966
      2 N          11.6611   41.9275    5.9621 N.2     1  UNL1        0.1575
      3 C          12.2514   40.5579   10.2439 C.3     1  UNL1        0.1247
      4 C          11.6317   41.3448    9.1467 C.2     1  UNL1        0.3112
      5 O          11.4318   42.5785    9.3032 O.2     1  UNL1       -0.2469
      6 N          11.2207   40.6799    7.9484 N.am    1  UNL1       -0.1650
      7 H          11.2222   39.6954    7.9520 H       1  UNL1        0.3015
      8 C           9.3951   41.2735    6.3303 C.ar    1  UNL1        0.2430
      9 C           8.7532   40.2784    5.6343 C.ar    1  UNL1        0.2042
     10 O           7.3616   41.7916    6.0721 O.2     1  UNL1       -0.2400
     11 N           8.4779   42.2217    6.5939 N.ar    1  UNL1       -0.0391
     12 N           7.4659   40.6318    5.4841 N.ar    1  UNL1       -0.0327
     13 C           9.4423   38.7020    3.7704 C.2     1  UNL1        0.2278
     14 C          10.0725   37.4081    3.4016 C.3     1  UNL1        0.0950
     15 O           9.0092   39.4615    2.8640 O.2     1  UNL1       -0.2747
     16 N           9.3377   39.0643    5.1503 N.am    1  UNL1       -0.2652
     17 H           9.6938   38.4325    5.8161 H       1  UNL1        0.1564
     18 O          13.0140   41.9382    6.2190 O.2     1  UNL1       -0.2748
     19 C          13.7346   43.1601    6.2215 C.3     1  UNL1        0.2977
     20 C          14.9841   43.0177    7.0252 C.ar    1  UNL1        0.0540
     21 C          15.9450   44.0405    7.0443 C.ar    1  UNL1        0.1398
     22 C          17.0954   43.9018    7.8272 C.ar    1  UNL1        0.0294
     23 C          17.2869   42.7493    8.5948 C.ar    1  UNL1        0.0023
     24 C          16.3269   41.7337    8.5827 C.ar    1  UNL1       -0.0001
     25 C          15.1758   41.8691    7.8013 C.ar    1  UNL1        0.0017
     26 F          15.7701   45.1673    6.3096 F       1  UNL1       -0.2044
@<TRIPOS>BOND
     1     3     4    1
     2     4     6   am
     3     1     8    1
     4    19    18    1
     5    19    20    1
     6    21    26    1
     7    21    22   ar
     8    23    24   ar
     9    25    20   ar
    10     9    16    1
    11     9     8   ar
    12    14    13    1
    13    10    12   ar
    14     6     1    1
    15     2    18    1
    16    11    10   ar
    17    16    13   am
    18     4     5    2
    19     1     2    2
    20    20    21   ar
    21    22    23   ar
    22    24    25   ar
    23     8    11   ar
    24     9    12   ar
    25    13    15    2
    26     6     7    1
    27    16    17    1
@<TRIPOS>MOLECULE
MolPort-002-716-149 4580359 CSSS00132972401 ChemDiv-8013-0823 MCULE-3996002319 PubChem-135403603 ZINC000004580359 ZINC04580359
 26 27 0 0 0
SMALL
GASTEIGER

@<TRIPOS>ATOM
      1 C          10.8691   41.7259    6.7612 C.2     1  UNL1        0.3966
      2 N          12.0461   42.1388    7.1235 N.2     1  UNL1        0.1575
      3 C          10.2817   39.5846    3.5937 C.3     1  UNL1        0.1247
      4 C          10.3074   39.9453    5.0346 C.2     1  UNL1        0.3112
      5 O          10.0180   39.0751    5.8981 O.2     1  UNL1       -0.2469
      6 N          10.6073   41.2904    5.4188 N.am    1  UNL1       -0.1650
      7 H          10.6364   41.9701    4.7071 H       1  UNL1        0.3015
      8 C           9.7650   41.7853    7.7315 C.ar    1  UNL1        0.2430
      9 C           9.8171   41.6207    9.0942 C.ar    1  UNL1        0.2042
     10 O           7.8251   42.0037    8.5436 O.2     1  UNL1       -0.2400
     11 N           8.4803   42.0288    7.4150 N.ar    1  UNL1       -0.0391
     12 N           8.5745   41.7639    9.5841 N.ar    1  UNL1       -0.0327
     13 C          11.5180   40.0447   10.1223 C.2     1  UNL1        0.2278
     14 C          12.7412   39.9008   10.9534 C.3     1  UNL1        0.0950
     15 O          10.9667   39.0169    9.6471 O.2     1  UNL1       -0.2747
     16 N          10.9861   41.3494    9.8752 N.am    1  UNL1       -0.2652
     17 H          11.4585   42.1171   10.2711 H       1  UNL1        0.1564
     18 O          13.1061   42.2172    6.2479 O.2     1  UNL1       -0.2748
     19 C          13.8971   43.3928    6.1816 C.3     1  UNL1        0.2977
     20 C          15.1636   43.2033    6.9481 C.ar    1  UNL1        0.0540
     21 C          16.1724   44.1788    6.9188 C.ar    1  UNL1        0.1398
     22 C          17.3395   43.9975    7.6675 C.ar    1  UNL1        0.0294
     23 C          17.5004   42.8497    8.4492 C.ar    1  UNL1        0.0023
     24 C          16.4931   41.8817    8.4854 C.ar    1  UNL1       -0.0001
     25 C          15.3252   42.0598    7.7383 C.ar    1  UNL1        0.0017
     26 F          16.0280   45.3005    6.1698 F       1  UNL1       -0.2044
@<TRIPOS>BOND
     1     3     4    1
     2     4     6   am
     3     1     8    1
     4    19    18    1
     5    19    20    1
     6    21    26    1
     7    21    22   ar
     8    23    24   ar
     9    25    20   ar
    10     9    16    1
    11     9     8   ar
    12    14    13    1
    13    10    12   ar
    14     6     1    1
    15     2    18    1
    16    11    10   ar
    17    16    13   am
    18     4     5    2
    19     1     2    2
    20    20    21   ar
    21    22    23   ar
    22    24    25   ar
    23     8    11   ar
    24     9    12   ar
    25    13    15    2
    26     6     7    1
    27    16    17    1
@<TRIPOS>MOLECULE
MolPort-002-716-149 4580359 CSSS00132972401 ChemDiv-8013-0823 MCULE-3996002319 PubChem-135403603 ZINC000004580359 ZINC04580359
 26 27 0 0 0
SMALL
GASTEIGER

@<TRIPOS>ATOM
      1 C          11.2224   40.2642    6.2999 C.2     1  UNL1        0.3966
      2 N          11.6846   41.4708    6.4314 N.2     1  UNL1        0.1575
      3 C          11.4456   38.0247    9.4461 C.3     1  UNL1        0.1247
      4 C          10.8652   38.9753    8.4629 C.2     1  UNL1        0.3112
      5 O           9.7502   39.5110    8.7003 O.2     1  UNL1       -0.2469
      6 N          11.5551   39.2274    7.2351 N.am    1  UNL1       -0.1650
      7 H          12.3171   38.6444    7.0145 H       1  UNL1        0.3015
      8 C          10.4065   39.9401    5.1195 C.ar    1  UNL1        0.2430
      9 C           9.0559   39.6977    5.0564 C.ar    1  UNL1        0.2042
     10 O           9.8529   39.5451    3.1175 O.2     1  UNL1       -0.2400
     11 N          10.8823   39.8356    3.8655 N.ar    1  UNL1       -0.0391
     12 N           8.7312   39.4500    3.7767 N.ar    1  UNL1       -0.0327
     13 C           7.1051   40.6819    6.3445 C.2     1  UNL1        0.2278
     14 C           6.2159   40.5798    7.5305 C.3     1  UNL1        0.0950
     15 O           6.9386   41.6227    5.5239 O.2     1  UNL1       -0.2747
     16 N           8.1364   39.7092    6.1539 N.am    1  UNL1       -0.2652
     17 H           8.2202   38.9954    6.8268 H       1  UNL1        0.1564
     18 O          12.5421   41.8294    7.4476 O.2     1  UNL1       -0.2748
     19 C          13.9078   41.4484    7.4026 C.3     1  UNL1        0.2977
     20 C          14.7560   42.6204    7.0359 C.ar    1  UNL1        0.0540
     21 C          16.0482   42.7638    7.5647 C.ar    1  UNL1        0.1398
     22 C          16.8396   43.8528    7.1860 C.ar    1  UNL1        0.0294
     23 C          16.3481   44.7950    6.2777 C.ar    1  UNL1        0.0023
     24 C          15.0646   44.6487    5.7443 C.ar    1  UNL1       -0.0001
     25 C          14.2710   43.5613    6.1207 C.ar    1  UNL1        0.0017
     26 F          16.5410   41.8545    8.4424 F       1  UNL1       -0.2044
@<TRIPOS>BOND
     1     3     4    1
     2     4     6   am
     3     1     8    1
     4    19    18    1
     5    19    20    1
     6    21    26    1
     7    21    22   ar
     8    23    24   ar
     9    25    20   ar
    10     9    16    1
    11     9     8   ar
    12    14    13    1
    13    10    12   ar
    14     6     1    1
    15     2    18    1
    16    11    10   ar
    17    16    13   am
    18     4     5    2
    19     1     2    2
    20    20    21   ar
    21    22    23   ar
    22    24    25   ar
    23     8    11   ar
    24     9    12   ar
    25    13    15    2
    26     6     7    1
    27    16    17    1
@<TRIPOS>MOLECULE
MolPort-002-716-149 4580359 CSSS00132972401 ChemDiv-8013-0823 MCULE-3996002319 PubChem-135403603 ZINC000004580359 ZINC04580359
 26 27 0 0 0
SMALL
GASTEIGER

@<TRIPOS>ATOM
      1 C          11.1280   40.2830    6.6365 C.2     1  UNL1        0.3966
      2 N          11.5729   41.5024    6.5922 N.2     1  UNL1        0.1575
      3 C          12.7476   37.9056    9.2226 C.3     1  UNL1        0.1247
      4 C          11.7585   38.8480    8.6391 C.2     1  UNL1        0.3112
      5 O          10.8000   39.2589    9.3457 O.2     1  UNL1       -0.2469
      6 N          11.8774   39.2333    7.2664 N.am    1  UNL1       -0.1650
      7 H          12.5235   38.7403    6.7108 H       1  UNL1        0.3015
      8 C           9.8656   39.9615    5.9529 C.ar    1  UNL1        0.2430
      9 C           8.6446   40.5774    6.0821 C.ar    1  UNL1        0.2042
     10 O           8.4625   39.0213    4.6809 O.2     1  UNL1       -0.2400
     11 N           9.7133   38.9749    5.0511 N.ar    1  UNL1       -0.0391
     12 N           7.7734   39.9623    5.2654 N.ar    1  UNL1       -0.0327
     13 C           7.3999   42.7224    6.6148 C.2     1  UNL1        0.2278
     14 C           7.1733   43.8236    7.5862 C.3     1  UNL1        0.0950
     15 O           6.7645   42.7140    5.5275 O.2     1  UNL1       -0.2747
     16 N           8.3370   41.6888    6.9308 N.am    1  UNL1       -0.2652
     17 H           8.8047   41.7458    7.7952 H       1  UNL1        0.1564
     18 O          12.7954   41.8647    7.1126 O.2     1  UNL1       -0.2748
     19 C          13.6605   42.7207    6.3840 C.3     1  UNL1        0.2977
     20 C          14.9762   42.8339    7.0795 C.ar    1  UNL1        0.0540
     21 C          15.7656   43.9858    6.9378 C.ar    1  UNL1        0.1398
     22 C          16.9814   44.0861    7.6213 C.ar    1  UNL1        0.0294
     23 C          17.4088   43.0441    8.4494 C.ar    1  UNL1        0.0023
     24 C          16.6198   41.9002    8.5975 C.ar    1  UNL1       -0.0001
     25 C          15.4038   41.7966    7.9158 C.ar    1  UNL1        0.0017
     26 F          15.3611   45.0076    6.1426 F       1  UNL1       -0.2044
@<TRIPOS>BOND
     1     3     4    1
     2     4     6   am
     3     1     8    1
     4    19    18    1
     5    19    20    1
     6    21    26    1
     7    21    22   ar
     8    23    24   ar
     9    25    20   ar
    10     9    16    1
    11     9     8   ar
    12    14    13    1
    13    10    12   ar
    14     6     1    1
    15     2    18    1
    16    11    10   ar
    17    16    13   am
    18     4     5    2
    19     1     2    2
    20    20    21   ar
    21    22    23   ar
    22    24    25   ar
    23     8    11   ar
    24     9    12   ar
    25    13    15    2
    26     6     7    1
    27    16    17    1
@<TRIPOS>MOLECULE
MolPort-002-716-149 4580359 CSSS00132972401 ChemDiv-8013-0823 MCULE-3996002319 PubChem-135403603 ZINC000004580359 ZINC04580359
 26 27 0 0 0
SMALL
GASTEIGER

@<TRIPOS>ATOM
      1 C           9.7442   41.4351    6.1288 C.2     1  UNL1        0.3966
      2 N          10.8354   41.7814    6.7423 N.2     1  UNL1        0.1575
      3 C           9.6491   38.8295    3.2714 C.3     1  UNL1        0.1247
      4 C           9.3534   39.4497    4.5886 C.2     1  UNL1        0.3112
      5 O           8.6923   38.8042    5.4447 O.2     1  UNL1       -0.2469
      6 N           9.7766   40.7919    4.8461 N.am    1  UNL1       -0.1650
      7 H          10.1164   41.3148    4.0844 H       1  UNL1        0.3015
      8 C           8.4484   41.7862    6.7303 C.ar    1  UNL1        0.2430
      9 C           8.0153   41.5623    8.0145 C.ar    1  UNL1        0.2042
     10 O           6.4881   42.5453    6.9566 O.2     1  UNL1       -0.2400
     11 N           7.4502   42.4154    6.0842 N.ar    1  UNL1       -0.0391
     12 N           6.7703   42.0528    8.1312 N.ar    1  UNL1       -0.0327
     13 C           9.5151   41.6102   10.0595 C.2     1  UNL1        0.2278
     14 C          10.2369   40.8258   11.0945 C.3     1  UNL1        0.0950
     15 O           9.5843   42.8676   10.0740 O.2     1  UNL1       -0.2747
     16 N           8.7526   40.9237    9.0627 N.am    1  UNL1       -0.2652
     17 H           8.7333   39.9401    9.1002 H       1  UNL1        0.1564
     18 O          12.0854   41.5869    6.1981 O.2     1  UNL1       -0.2748
     19 C          13.2178   41.4312    7.0380 C.3     1  UNL1        0.2977
     20 C          14.1835   42.5461    6.8099 C.ar    1  UNL1        0.0540
     21 C          15.4444   42.5402    7.4264 C.ar    1  UNL1        0.1398
     22 C          16.3473   43.5784    7.1768 C.ar    1  UNL1        0.0294
     23 C          15.9986   44.6185    6.3103 C.ar    1  UNL1        0.0023
     24 C          14.7464   44.6211    5.6895 C.ar    1  UNL1       -0.0001
     25 C          13.8414   43.5848    5.9367 C.ar    1  UNL1        0.0017
     26 F          15.7993   41.5347    8.2649 F       1  UNL1       -0.2044
@<TRIPOS>BOND
     1     3     4    1
     2     4     6   am
     3     1     8    1
     4    19    18    1
     5    19    20    1
     6    21    26    1
     7    21    22   ar
     8    23    24   ar
     9    25    20   ar
    10     9    16    1
    11     9     8   ar
    12    14    13    1
    13    10    12   ar
    14     6     1    1
    15     2    18    1
    16    11    10   ar
    17    16    13   am
    18     4     5    2
    19     1     2    2
    20    20    21   ar
    21    22    23   ar
    22    24    25   ar
    23     8    11   ar
    24     9    12   ar
    25    13    15    2
    26     6     7    1
    27    16    17    1
@<TRIPOS>MOLECULE
MolPort-002-716-149 4580359 CSSS00132972401 ChemDiv-8013-0823 MCULE-3996002319 PubChem-135403603 ZINC000004580359 ZINC04580359
 26 27 0 0 0
SMALL
GASTEIGER

@<TRIPOS>ATOM
      1 C           9.3967   40.7678    7.9702 C.2     1  UNL1        0.3966
      2 N          10.3751   41.3065    7.3073 N.2     1  UNL1        0.1575
      3 C           9.4596   41.2345   11.8097 C.3     1  UNL1        0.1247
      4 C           9.1117   41.4978   10.3896 C.2     1  UNL1        0.3112
      5 O           8.4541   42.5300   10.0921 O.2     1  UNL1       -0.2469
      6 N           9.4814   40.5474    9.3860 N.am    1  UNL1       -0.1650
      7 H           9.8202   39.6745    9.6902 H       1  UNL1        0.3015
      8 C           8.2112   40.3014    7.2345 C.ar    1  UNL1        0.2430
      9 C           8.1550   39.4437    6.1631 C.ar    1  UNL1        0.2042
     10 O           6.1969   40.0319    6.6509 O.2     1  UNL1       -0.2400
     11 N           6.9451   40.6560    7.5194 N.ar    1  UNL1       -0.0391
     12 N           6.8673   39.2901    5.8130 N.ar    1  UNL1       -0.0327
     13 C           9.5931   38.9405    4.1352 C.2     1  UNL1        0.2278
     14 C          10.7771   38.2248    3.5933 C.3     1  UNL1        0.0950
     15 O           8.8942   39.6531    3.3672 O.2     1  UNL1       -0.2747
     16 N           9.2662   38.8084    5.5215 N.am    1  UNL1       -0.2652
     17 H           9.8480   38.2390    6.0751 H       1  UNL1        0.1564
     18 O          11.5619   41.6713    7.9031 O.2     1  UNL1       -0.2748
     19 C          12.7665   40.9979    7.5752 C.3     1  UNL1        0.2977
     20 C          13.8083   41.9825    7.1594 C.ar    1  UNL1        0.0540
     21 C          15.0813   41.9722    7.7503 C.ar    1  UNL1        0.1398
     22 C          16.0542   42.8829    7.3264 C.ar    1  UNL1        0.0294
     23 C          15.7627   43.7991    6.3116 C.ar    1  UNL1        0.0023
     24 C          14.4980   43.8049    5.7169 C.ar    1  UNL1       -0.0001
     25 C          13.5232   42.8958    6.1383 C.ar    1  UNL1        0.0017
     26 F          15.3809   41.0851    8.7318 F       1  UNL1       -0.2044
@<TRIPOS>BOND
     1     3     4    1
     2     4     6   am
     3     1     8    1
     4    19    18    1
     5    19    20    1
     6    21    26    1
     7    21    22   ar
     8    23    24   ar
     9    25    20   ar
    10     9    16    1
    11     9     8   ar
    12    14    13    1
    13    10    12   ar
    14     6     1    1
    15     2    18    1
    16    11    10   ar
    17    16    13   am
    18     4     5    2
    19     1     2    2
    20    20    21   ar
    21    22    23   ar
    22    24    25   ar
    23     8    11   ar
    24     9    12   ar
    25    13    15    2
    26     6     7    1
    27    16    17    1
@<TRIPOS>MOLECULE
MolPort-002-716-149 4580359 CSSS00132972401 ChemDiv-8013-0823 MCULE-3996002319 PubChem-135403603 ZINC000004580359 ZINC04580359
 26 27 0 0 0
SMALL
GASTEIGER

@<TRIPOS>ATOM
      1 C           9.4180   39.8459    6.1118 C.2     1  UNL1        0.3966
      2 N          10.2046   40.7793    6.5557 N.2     1  UNL1        0.1575
      3 C          10.0968   37.3843    3.2062 C.3     1  UNL1        0.1247
      4 C           9.7350   38.6536    3.8881 C.2     1  UNL1        0.3112
      5 O           9.3206   39.6286    3.2067 O.2     1  UNL1       -0.2469
      6 N           9.9139   38.7689    5.3028 N.am    1  UNL1       -0.1650
      7 H          10.4161   38.0541    5.7568 H       1  UNL1        0.3015
      8 C           7.9749   39.9452    6.3799 C.ar    1  UNL1        0.2430
      9 C           7.3365   40.6709    7.3558 C.ar    1  UNL1        0.2042
     10 O           5.8858   39.6642    6.2157 O.2     1  UNL1       -0.2400
     11 N           7.0199   39.3166    5.6710 N.ar    1  UNL1       -0.0391
     12 N           6.0136   40.4751    7.2296 N.ar    1  UNL1       -0.0327
     13 C           7.9221   42.9332    8.3423 C.2     1  UNL1        0.2278
     14 C           8.6105   43.6796    9.4269 C.3     1  UNL1        0.0950
     15 O           7.3173   43.5692    7.4390 O.2     1  UNL1       -0.2747
     16 N           7.9574   41.5032    8.3417 N.am    1  UNL1       -0.2652
     17 H           8.4443   41.0586    9.0728 H       1  UNL1        0.1564
     18 O          11.5488   40.8191    6.2590 O.2     1  UNL1       -0.2748
     19 C          12.5147   40.7720    7.2968 C.3     1  UNL1        0.2977
     20 C          13.5720   41.7987    7.0611 C.ar    1  UNL1        0.0540
     21 C          14.7913   41.7446    7.7542 C.ar    1  UNL1        0.1398
     22 C          15.7818   42.6980    7.4979 C.ar    1  UNL1        0.0294
     23 C          15.5617   43.7007    6.5490 C.ar    1  UNL1        0.0023
     24 C          14.3511   43.7506    5.8525 C.ar    1  UNL1       -0.0001
     25 C          13.3589   42.7991    6.1062 C.ar    1  UNL1        0.0017
     26 F          15.0217   40.7741    8.6734 F       1  UNL1       -0.2044
@<TRIPOS>BOND
     1     3     4    1
     2     4     6   am
     3     1     8    1
     4    19    18    1
     5    19    20    1
     6    21    26    1
     7    21    22   ar
     8    23    24   ar
     9    25    20   ar
    10     9    16    1
    11     9     8   ar
    12    14    13    1
    13    10    12   ar
    14     6     1    1
    15     2    18    1
    16    11    10   ar
    17    16    13   am
    18     4     5    2
    19     1     2    2
    20    20    21   ar
    21    22    23   ar
    22    24    25   ar
    23     8    11   ar
    24     9    12   ar
    25    13    15    2
    26     6     7    1
    27    16    17    1
@<TRIPOS>MOLECULE
MolPort-002-716-149 4580359 CSSS00132972401 ChemDiv-8013-0823 MCULE-3996002319 PubChem-135403603 ZINC000004580359 ZINC04580359
 26 27 0 0 0
SMALL
GASTEIGER

@<TRIPOS>ATOM
      1 C          10.0921   41.5607    6.3828 C.2     1  UNL1        0.3966
      2 N          11.1642   42.0597    6.9200 N.2     1  UNL1        0.1575
      3 C          10.3087   39.3966    3.1839 C.3     1  UNL1        0.1247
      4 C          10.0967   39.7320    4.6155 C.2     1  UNL1        0.3112
      5 O           9.8886   38.8080    5.4459 O.2     1  UNL1       -0.2469
      6 N          10.0777   41.1036    5.0223 N.am    1  UNL1       -0.1650
      7 H          10.0529   41.7869    4.3140 H       1  UNL1        0.3015
      8 C           8.8471   41.5416    7.1663 C.ar    1  UNL1        0.2430
      9 C           8.3762   40.5531    7.9957 C.ar    1  UNL1        0.2042
     10 O           7.0000   42.1418    8.0018 O.2     1  UNL1       -0.2400
     11 N           7.9454   42.5395    7.1947 N.ar    1  UNL1       -0.0391
     12 N           7.2044   40.9587    8.5122 N.ar    1  UNL1       -0.0327
     13 C          10.2105   39.1522    9.0476 C.2     1  UNL1        0.2278
     14 C          10.7712   37.7937    9.2663 C.3     1  UNL1        0.0950
     15 O          10.7957   40.1516    9.5423 O.2     1  UNL1       -0.2747
     16 N           9.0141   39.3027    8.2781 N.am    1  UNL1       -0.2652
     17 H           8.5988   38.4868    7.9161 H       1  UNL1        0.1564
     18 O          12.3409   42.2132    6.2211 O.2     1  UNL1       -0.2748
     19 C          13.5670   41.7592    6.7712 C.3     1  UNL1        0.2977
     20 C          14.5989   42.8339    6.6822 C.ar    1  UNL1        0.0540
     21 C          15.8211   42.7126    7.3616 C.ar    1  UNL1        0.1398
     22 C          16.7878   43.7160    7.2419 C.ar    1  UNL1        0.0294
     23 C          16.5412   44.8361    6.4426 C.ar    1  UNL1        0.0023
     24 C          15.3278   44.9539    5.7593 C.ar    1  UNL1       -0.0001
     25 C          14.3593   43.9528    5.8766 C.ar    1  UNL1        0.0017
     26 F          16.0771   41.6287    8.1359 F       1  UNL1       -0.2044
@<TRIPOS>BOND
     1     3     4    1
     2     4     6   am
     3     1     8    1
     4    19    18    1
     5    19    20    1
     6    21    26    1
     7    21    22   ar
     8    23    24   ar
     9    25    20   ar
    10     9    16    1
    11     9     8   ar
    12    14    13    1
    13    10    12   ar
    14     6     1    1
    15     2    18    1
    16    11    10   ar
    17    16    13   am
    18     4     5    2
    19     1     2    2
    20    20    21   ar
    21    22    23   ar
    22    24    25   ar
    23     8    11   ar
    24     9    12   ar
    25    13    15    2
    26     6     7    1
    27    16    17    1
@<TRIPOS>MOLECULE
MolPort-002-716-149 4580359 CSSS00132972401 ChemDiv-8013-0823 MCULE-3996002319 PubChem-135403603 ZINC000004580359 ZINC04580359
 26 27 0 0 0
SMALL
GASTEIGER

@<TRIPOS>ATOM
      1 C          13.8183   40.3618    8.8763 C.2     1  UNL1        0.3966
      2 N          12.8983   41.2217    8.5582 N.2     1  UNL1        0.1575
      3 C          13.2544   37.2170   11.0570 C.3     1  UNL1        0.1247
      4 C          13.3793   38.6564   10.7109 C.2     1  UNL1        0.3112
      5 O          13.3415   39.5210   11.6261 O.2     1  UNL1       -0.2469
      6 N          13.4861   39.0439    9.3378 N.am    1  UNL1       -0.1650
      7 H          13.3187   38.3531    8.6567 H       1  UNL1        0.3015
      8 C          15.2278   40.7816    8.8377 C.ar    1  UNL1        0.2430
      9 C          15.8059   41.7591    8.0651 C.ar    1  UNL1        0.2042
     10 O          17.2943   40.8933    9.2704 O.2     1  UNL1       -0.2400
     11 N          16.2053   40.2511    9.5946 N.ar    1  UNL1       -0.0391
     12 N          17.1157   41.8092    8.3587 N.ar    1  UNL1       -0.0327
     13 C          15.4811   43.9583    6.8436 C.2     1  UNL1        0.2278
     14 C          14.7087   44.7165    5.8258 C.3     1  UNL1        0.0950
     15 O          16.4237   44.5259    7.4563 O.2     1  UNL1       -0.2747
     16 N          15.1414   42.5948    7.1110 N.am    1  UNL1       -0.2652
     17 H          14.3959   42.2021    6.6018 H       1  UNL1        0.1564
     18 O          11.5541   40.9444    8.6700 O.2     1  UNL1       -0.2748
     19 C          10.5877   41.9026    8.2701 C.3     1  UNL1        0.2977
     20 C           9.3776   41.8047    9.1383 C.ar    1  UNL1        0.0540
     21 C           9.4389   42.1550   10.4961 C.ar    1  UNL1        0.1398
     22 C           8.2875   42.0855   11.2866 C.ar    1  UNL1        0.0294
     23 C           7.0751   41.6736   10.7257 C.ar    1  UNL1        0.0023
     24 C           7.0112   41.3324    9.3719 C.ar    1  UNL1       -0.0001
     25 C           8.1603   41.4008    8.5788 C.ar    1  UNL1        0.0017
     26 F          10.6068   42.5623   11.0530 F       1  UNL1       -0.2044
@<TRIPOS>BOND
     1     3     4    1
     2     4     6   am
     3     1     8    1
     4    19    18    1
     5    19    20    1
     6    21    26    1
     7    21    22   ar
     8    23    24   ar
     9    25    20   ar
    10     9    16    1
    11     9     8   ar
    12    14    13    1
    13    10    12   ar
    14     6     1    1
    15     2    18    1
    16    11    10   ar
    17    16    13   am
    18     4     5    2
    19     1     2    2
    20    20    21   ar
    21    22    23   ar
    22    24    25   ar
    23     8    11   ar
    24     9    12   ar
    25    13    15    2
    26     6     7    1
    27    16    17    1
