@<TRIPOS>MOLECULE
MolPort-008-317-398 36357030 CSSS00160790402 LN00864406 MCULE-2146435263 PubChem-45491985 ZINC000036357030
 32 36 0 0 0
SMALL
GASTEIGER

@<TRIPOS>ATOM
      1 C          11.1992   39.0556    7.9369 C.ar    1  UNL1        0.0494
      2 C           9.9494   38.7840    7.3561 C.ar    1  UNL1        0.0146
      3 C           9.5061   39.5123    6.2498 C.ar    1  UNL1        0.0025
      4 C          10.3079   40.5204    5.7114 C.ar    1  UNL1        0.0148
      5 C          11.5588   40.8074    6.2750 C.ar    1  UNL1        0.0516
      6 C          11.9942   40.0739    7.3831 C.ar    1  UNL1        0.0292
      7 C          13.8956   37.3882    9.1808 C.ar    1  UNL1        0.1406
      8 C          13.0109   38.5167    9.5948 C.3     1  UNL1        0.1556
      9 C          10.7868   37.2889    9.6838 C.3     1  UNL1        0.0932
     10 C          11.5104   36.4259   10.7146 C.3     1  UNL1        0.0459
     11 C          12.4576   35.4370   10.0401 C.3     1  UNL1        0.1090
     12 C          14.6535   35.4285    8.8476 C.ar    1  UNL1        0.0786
     13 C          15.5228   36.3433    8.3278 C.ar    1  UNL1        0.0984
     14 C          16.6995   35.9620    7.6880 C.ar    1  UNL1        0.0206
     15 C          16.9686   34.5837    7.5934 C.ar    1  UNL1        0.0016
     16 C          16.0684   33.6368    8.1311 C.ar    1  UNL1        0.0016
     17 C          14.8872   34.0554    8.7712 C.ar    1  UNL1        0.0188
     18 N          11.6593   38.3028    9.0773 N.pl3   1  UNL1       -0.3010
     19 N          13.6153   36.0722    9.3994 N.ar    1  UNL1       -0.3135
     20 N          15.0673   37.5934    8.5245 N.ar    1  UNL1       -0.2292
     21 C          12.8975   42.9857    6.4557 C.2     1  UNL1        0.2707
     22 N          12.4100   41.8359    5.7518 N.am    1  UNL1       -0.2808
     23 O          12.5800   43.2019    7.6549 O.2     1  UNL1       -0.2707
     24 H          12.6885   41.7428    4.8121 H       1  UNL1        0.1550
     25 C          13.8046   43.9399    5.7576 C.3     1  UNL1        0.2897
     26 O          15.1177   43.3963    5.6634 O.3     1  UNL1       -0.4656
     27 C          15.9653   43.2374    6.7655 C.ar    1  UNL1        0.1393
     28 C          16.9658   44.1758    7.0685 C.ar    1  UNL1        0.0369
     29 C          17.7972   43.9868    8.1763 C.ar    1  UNL1        0.0031
     30 C          17.6353   42.8599    8.9868 C.ar    1  UNL1        0.0002
     31 C          16.6427   41.9220    8.6890 C.ar    1  UNL1        0.0031
     32 C          15.8110   42.1110    7.5810 C.ar    1  UNL1        0.0369
@<TRIPOS>BOND
     1     8     7    1
     2     8    18    1
     3     9    18    1
     4     9    10    1
     5    10    11    1
     6    11    19    1
     7    13    14   ar
     8    13    20   ar
     9    15    16   ar
    10    17    12   ar
    11     2     3   ar
    12     4     5   ar
    13     5    22    1
    14     6     1   ar
    15    25    21    1
    16    25    26    1
    17    27    26    1
    18    28    29   ar
    19    30    31   ar
    20    32    27   ar
    21    18     1    1
    22    19    12   ar
    23    19     7   ar
    24    22    21   am
    25     7    20   ar
    26    12    13   ar
    27    14    15   ar
    28    16    17   ar
    29     1     2   ar
    30     3     4   ar
    31     5     6   ar
    32    21    23    2
    33    27    28   ar
    34    29    30   ar
    35    31    32   ar
    36    22    24    1
@<TRIPOS>MOLECULE
MolPort-008-317-398 36357030 CSSS00160790402 LN00864406 MCULE-2146435263 PubChem-45491985 ZINC000036357030
 32 36 0 0 0
SMALL
GASTEIGER

@<TRIPOS>ATOM
      1 C          10.1290   41.2564    9.0560 C.ar    1  UNL1        0.0494
      2 C          10.4127   40.7078   10.3177 C.ar    1  UNL1        0.0146
      3 C           9.6371   41.0436   11.4296 C.ar    1  UNL1        0.0025
      4 C           8.5686   41.9316   11.2925 C.ar    1  UNL1        0.0148
      5 C           8.2676   42.4901   10.0426 C.ar    1  UNL1        0.0516
      6 C           9.0501   42.1491    8.9349 C.ar    1  UNL1        0.0292
      7 C          13.3254   40.6370    8.0574 C.ar    1  UNL1        0.1406
      8 C          12.0094   39.9332    8.0390 C.3     1  UNL1        0.1556
      9 C          10.6825   41.5721    6.6194 C.3     1  UNL1        0.0932
     10 C          11.7616   41.2685    5.5829 C.3     1  UNL1        0.0459
     11 C          13.0570   42.0109    5.9002 C.3     1  UNL1        0.1090
     12 C          14.9429   41.9171    7.5370 C.ar    1  UNL1        0.0786
     13 C          15.2357   41.2708    8.7028 C.ar    1  UNL1        0.0984
     14 C          16.4319   41.4830    9.3834 C.ar    1  UNL1        0.0206
     15 C          17.3432   42.3976    8.8230 C.ar    1  UNL1        0.0016
     16 C          17.0399   43.0669    7.6163 C.ar    1  UNL1        0.0016
     17 C          15.8213   42.8303    6.9535 C.ar    1  UNL1        0.0188
     18 N          10.9271   40.9087    7.9067 N.pl3   1  UNL1       -0.3010
     19 N          13.7356   41.5240    7.1072 N.ar    1  UNL1       -0.3135
     20 N          14.2278   40.4534    9.0563 N.ar    1  UNL1       -0.2292
     21 C           6.1992   43.3779    8.8167 C.2     1  UNL1        0.2707
     22 N           7.1799   43.4067    9.8619 N.am    1  UNL1       -0.2808
     23 O           6.2324   42.5023    7.9123 O.2     1  UNL1       -0.2707
     24 H           7.0981   44.1306   10.5241 H       1  UNL1        0.1550
     25 C           5.1138   44.3989    8.8043 C.3     1  UNL1        0.2897
     26 O           3.8993   43.8368    9.2920 O.3     1  UNL1       -0.4656
     27 C           3.8256   42.5836    9.9101 C.ar    1  UNL1        0.1393
     28 C           4.4532   42.3295   11.1410 C.ar    1  UNL1        0.0369
     29 C           4.3615   41.0657   11.7314 C.ar    1  UNL1        0.0031
     30 C           3.6441   40.0486   11.0960 C.ar    1  UNL1        0.0002
     31 C           3.0191   40.2951    9.8703 C.ar    1  UNL1        0.0031
     32 C           3.1107   41.5592    9.2798 C.ar    1  UNL1        0.0369
@<TRIPOS>BOND
     1     8     7    1
     2     8    18    1
     3     9    18    1
     4     9    10    1
     5    10    11    1
     6    11    19    1
     7    13    14   ar
     8    13    20   ar
     9    15    16   ar
    10    17    12   ar
    11     2     3   ar
    12     4     5   ar
    13     5    22    1
    14     6     1   ar
    15    25    21    1
    16    25    26    1
    17    27    26    1
    18    28    29   ar
    19    30    31   ar
    20    32    27   ar
    21    18     1    1
    22    19    12   ar
    23    19     7   ar
    24    22    21   am
    25     7    20   ar
    26    12    13   ar
    27    14    15   ar
    28    16    17   ar
    29     1     2   ar
    30     3     4   ar
    31     5     6   ar
    32    21    23    2
    33    27    28   ar
    34    29    30   ar
    35    31    32   ar
    36    22    24    1
@<TRIPOS>MOLECULE
MolPort-008-317-398 36357030 CSSS00160790402 LN00864406 MCULE-2146435263 PubChem-45491985 ZINC000036357030
 32 36 0 0 0
SMALL
GASTEIGER

@<TRIPOS>ATOM
      1 C          11.8959   39.4872   10.0872 C.ar    1  UNL1        0.0494
      2 C          10.6829   39.9261   10.6434 C.ar    1  UNL1        0.0146
      3 C          10.1534   41.1722   10.3008 C.ar    1  UNL1        0.0025
      4 C          10.8305   41.9937    9.3976 C.ar    1  UNL1        0.0148
      5 C          12.0420   41.5750    8.8303 C.ar    1  UNL1        0.0516
      6 C          12.5654   40.3262    9.1798 C.ar    1  UNL1        0.0292
      7 C          14.7542   37.9352   11.0969 C.ar    1  UNL1        0.1406
      8 C          13.3494   38.0796   11.5796 C.3     1  UNL1        0.1556
      9 C          12.1260   37.0236    9.6174 C.3     1  UNL1        0.0932
     10 C          12.9706   35.8046    9.9803 C.3     1  UNL1        0.0459
     11 C          14.4065   35.9605    9.4866 C.3     1  UNL1        0.1090
     12 C          16.4710   37.2547   10.0407 C.ar    1  UNL1        0.0786
     13 C          16.8193   38.3050   10.8397 C.ar    1  UNL1        0.0984
     14 C          18.1220   38.7946   10.8880 C.ar    1  UNL1        0.0206
     15 C          19.0826   38.1629   10.0760 C.ar    1  UNL1        0.0016
     16 C          18.7219   37.0759    9.2487 C.ar    1  UNL1        0.0016
     17 C          17.3959   36.6056    9.2225 C.ar    1  UNL1        0.0188
     18 N          12.4425   38.1999   10.4379 N.pl3   1  UNL1       -0.3010
     19 N          15.1639   37.0000   10.1937 N.ar    1  UNL1       -0.3135
     20 N          15.7505   38.7562   11.5201 N.ar    1  UNL1       -0.2292
     21 C          12.7458   42.2876    6.4710 C.2     1  UNL1        0.2707
     22 N          12.7677   42.3906    7.9006 N.am    1  UNL1       -0.2808
     23 O          12.0595   41.4067    5.8889 O.2     1  UNL1       -0.2707
     24 H          13.3402   43.0939    8.2838 H       1  UNL1        0.1550
     25 C          13.5439   43.2469    5.6566 C.3     1  UNL1        0.2897
     26 O          14.3715   44.0431    6.4992 O.3     1  UNL1       -0.4656
     27 C          15.6720   43.6792    6.8658 C.ar    1  UNL1        0.1393
     28 C          15.9173   42.6649    7.8065 C.ar    1  UNL1        0.0369
     29 C          17.2287   42.3263    8.1521 C.ar    1  UNL1        0.0031
     30 C          18.3023   42.9988    7.5619 C.ar    1  UNL1        0.0002
     31 C          18.0642   44.0100    6.6268 C.ar    1  UNL1        0.0031
     32 C          16.7525   44.3486    6.2809 C.ar    1  UNL1        0.0369
@<TRIPOS>BOND
     1     8     7    1
     2     8    18    1
     3     9    18    1
     4     9    10    1
     5    10    11    1
     6    11    19    1
     7    13    14   ar
     8    13    20   ar
     9    15    16   ar
    10    17    12   ar
    11     2     3   ar
    12     4     5   ar
    13     5    22    1
    14     6     1   ar
    15    25    21    1
    16    25    26    1
    17    27    26    1
    18    28    29   ar
    19    30    31   ar
    20    32    27   ar
    21    18     1    1
    22    19    12   ar
    23    19     7   ar
    24    22    21   am
    25     7    20   ar
    26    12    13   ar
    27    14    15   ar
    28    16    17   ar
    29     1     2   ar
    30     3     4   ar
    31     5     6   ar
    32    21    23    2
    33    27    28   ar
    34    29    30   ar
    35    31    32   ar
    36    22    24    1
@<TRIPOS>MOLECULE
MolPort-008-317-398 36357030 CSSS00160790402 LN00864406 MCULE-2146435263 PubChem-45491985 ZINC000036357030
 32 36 0 0 0
SMALL
GASTEIGER

@<TRIPOS>ATOM
      1 C          10.7990   41.0786    9.4481 C.ar    1  UNL1        0.0494
      2 C          11.4489   40.7885   10.6592 C.ar    1  UNL1        0.0146
      3 C          10.7853   40.9470   11.8779 C.ar    1  UNL1        0.0025
      4 C           9.4640   41.3971   11.8995 C.ar    1  UNL1        0.0148
      5 C           8.7965   41.6918   10.7026 C.ar    1  UNL1        0.0516
      6 C           9.4689   41.5312    9.4871 C.ar    1  UNL1        0.0292
      7 C          13.8956   40.9149    8.0403 C.ar    1  UNL1        0.1406
      8 C          12.6712   40.0645    8.1111 C.3     1  UNL1        0.1556
      9 C          11.0098   41.6361    7.0011 C.3     1  UNL1        0.0932
     10 C          11.9791   41.5388    5.8255 C.3     1  UNL1        0.0459
     11 C          13.2159   42.4032    6.0561 C.3     1  UNL1        0.1090
     12 C          15.2886   42.4114    7.4520 C.ar    1  UNL1        0.0786
     13 C          15.7913   41.7198    8.5158 C.ar    1  UNL1        0.0984
     14 C          17.0324   42.0205    9.0710 C.ar    1  UNL1        0.0206
     15 C          17.7634   43.0748    8.4920 C.ar    1  UNL1        0.0016
     16 C          17.2428   43.7910    7.3909 C.ar    1  UNL1        0.0016
     17 C          15.9844   43.4622    6.8538 C.ar    1  UNL1        0.0188
     18 N          11.4819   40.9130    8.1892 N.pl3   1  UNL1       -0.3010
     19 N          14.0871   41.9118    7.1304 N.ar    1  UNL1       -0.3135
     20 N          14.9290   40.7656    8.9094 N.ar    1  UNL1       -0.2292
     21 C           6.3199   41.5620   11.3503 C.2     1  UNL1        0.2707
     22 N           7.4405   42.1577   10.6837 N.am    1  UNL1       -0.2808
     23 O           6.4467   40.5091   12.0294 O.2     1  UNL1       -0.2707
     24 H           7.2605   42.9708   10.1586 H       1  UNL1        0.1550
     25 C           4.9800   42.2054   11.2450 C.3     1  UNL1        0.2897
     26 O           4.4836   42.1011    9.9140 O.3     1  UNL1       -0.4656
     27 C           5.1923   42.5447    8.7919 C.ar    1  UNL1        0.1393
     28 C           5.8881   41.6533    7.9583 C.ar    1  UNL1        0.0369
     29 C           6.5877   42.1290    6.8456 C.ar    1  UNL1        0.0031
     30 C           6.5978   43.4969    6.5595 C.ar    1  UNL1        0.0002
     31 C           5.9088   44.3887    7.3863 C.ar    1  UNL1        0.0031
     32 C           5.2089   43.9128    8.4993 C.ar    1  UNL1        0.0369
@<TRIPOS>BOND
     1     8     7    1
     2     8    18    1
     3     9    18    1
     4     9    10    1
     5    10    11    1
     6    11    19    1
     7    13    14   ar
     8    13    20   ar
     9    15    16   ar
    10    17    12   ar
    11     2     3   ar
    12     4     5   ar
    13     5    22    1
    14     6     1   ar
    15    25    21    1
    16    25    26    1
    17    27    26    1
    18    28    29   ar
    19    30    31   ar
    20    32    27   ar
    21    18     1    1
    22    19    12   ar
    23    19     7   ar
    24    22    21   am
    25     7    20   ar
    26    12    13   ar
    27    14    15   ar
    28    16    17   ar
    29     1     2   ar
    30     3     4   ar
    31     5     6   ar
    32    21    23    2
    33    27    28   ar
    34    29    30   ar
    35    31    32   ar
    36    22    24    1
@<TRIPOS>MOLECULE
MolPort-008-317-398 36357030 CSSS00160790402 LN00864406 MCULE-2146435263 PubChem-45491985 ZINC000036357030
 32 36 0 0 0
SMALL
GASTEIGER

@<TRIPOS>ATOM
      1 C          11.0342   41.6340    9.4203 C.ar    1  UNL1        0.0494
      2 C          11.0493   41.0100   10.6788 C.ar    1  UNL1        0.0146
      3 C          10.0064   41.2126   11.5854 C.ar    1  UNL1        0.0025
      4 C           8.9361   42.0413   11.2438 C.ar    1  UNL1        0.0148
      5 C           8.9007   42.6732    9.9930 C.ar    1  UNL1        0.0516
      6 C           9.9496   42.4655    9.0919 C.ar    1  UNL1        0.0292
      7 C          13.7786   39.7079    8.8235 C.ar    1  UNL1        0.1406
      8 C          12.5083   40.0624    8.1249 C.3     1  UNL1        0.1556
      9 C          12.8308   42.5762    7.9279 C.3     1  UNL1        0.0932
     10 C          14.0808   42.1726    7.1497 C.3     1  UNL1        0.0459
     11 C          15.1964   41.7242    8.0902 C.3     1  UNL1        0.1090
     12 C          15.7751   39.7837    9.5544 C.ar    1  UNL1        0.0786
     13 C          15.1590   38.6664   10.0389 C.ar    1  UNL1        0.0984
     14 C          15.8120   37.7713   10.8824 C.ar    1  UNL1        0.0206
     15 C          17.1468   38.0585   11.2242 C.ar    1  UNL1        0.0016
     16 C          17.7844   39.2154   10.7229 C.ar    1  UNL1        0.0016
     17 C          17.0958   40.1004    9.8728 C.ar    1  UNL1        0.0188
     18 N          12.1088   41.4236    8.4824 N.pl3   1  UNL1       -0.3010
     19 N          14.9168   40.4565    8.7751 N.ar    1  UNL1       -0.3135
     20 N          13.8926   38.5934    9.5920 N.ar    1  UNL1       -0.2292
     21 C           6.8517   43.2828    8.5790 C.2     1  UNL1        0.2707
     22 N           7.8200   43.5325    9.6062 N.am    1  UNL1       -0.2808
     23 O           6.8912   42.2337    7.8837 O.2     1  UNL1       -0.2707
     24 H           7.7340   44.3818   10.0968 H       1  UNL1        0.1550
     25 C           5.7719   44.2802    8.3341 C.3     1  UNL1        0.2897
     26 O           4.6925   44.0741    9.2403 O.3     1  UNL1       -0.4656
     27 C           4.3522   42.8196    9.7586 C.ar    1  UNL1        0.1393
     28 C           5.0423   42.2581   10.8457 C.ar    1  UNL1        0.0369
     29 C           4.6782   41.0018   11.3388 C.ar    1  UNL1        0.0031
     30 C           3.6244   40.2986   10.7488 C.ar    1  UNL1        0.0002
     31 C           2.9354   40.8516    9.6656 C.ar    1  UNL1        0.0031
     32 C           3.2995   42.1083    9.1725 C.ar    1  UNL1        0.0369
@<TRIPOS>BOND
     1     8     7    1
     2     8    18    1
     3     9    18    1
     4     9    10    1
     5    10    11    1
     6    11    19    1
     7    13    14   ar
     8    13    20   ar
     9    15    16   ar
    10    17    12   ar
    11     2     3   ar
    12     4     5   ar
    13     5    22    1
    14     6     1   ar
    15    25    21    1
    16    25    26    1
    17    27    26    1
    18    28    29   ar
    19    30    31   ar
    20    32    27   ar
    21    18     1    1
    22    19    12   ar
    23    19     7   ar
    24    22    21   am
    25     7    20   ar
    26    12    13   ar
    27    14    15   ar
    28    16    17   ar
    29     1     2   ar
    30     3     4   ar
    31     5     6   ar
    32    21    23    2
    33    27    28   ar
    34    29    30   ar
    35    31    32   ar
    36    22    24    1
@<TRIPOS>MOLECULE
MolPort-008-317-398 36357030 CSSS00160790402 LN00864406 MCULE-2146435263 PubChem-45491985 ZINC000036357030
 32 36 0 0 0
SMALL
GASTEIGER

@<TRIPOS>ATOM
      1 C          13.0869   37.9109    9.6674 C.ar    1  UNL1        0.0494
      2 C          12.0175   37.3527   10.3872 C.ar    1  UNL1        0.0146
      3 C          11.9224   35.9701   10.5610 C.ar    1  UNL1        0.0025
      4 C          12.8957   35.1299   10.0174 C.ar    1  UNL1        0.0148
      5 C          13.9715   35.6660    9.2961 C.ar    1  UNL1        0.0516
      6 C          14.0583   37.0513    9.1261 C.ar    1  UNL1        0.0292
      7 C          11.4833   40.8466   10.3063 C.ar    1  UNL1        0.1406
      8 C          12.8173   40.2370   10.5826 C.3     1  UNL1        0.1556
      9 C          13.6148   39.8846    8.1947 C.3     1  UNL1        0.0932
     10 C          13.4352   41.3980    8.1032 C.3     1  UNL1        0.0459
     11 C          11.9627   41.7717    7.9552 C.3     1  UNL1        0.1090
     12 C           9.8797   41.8504    9.3333 C.ar    1  UNL1        0.0786
     13 C           9.4631   41.4150   10.5579 C.ar    1  UNL1        0.0984
     14 C           8.1664   41.6331   11.0164 C.ar    1  UNL1        0.0206
     15 C           7.2861   42.3274   10.1654 C.ar    1  UNL1        0.0016
     16 C           7.7173   42.7778    8.8976 C.ar    1  UNL1        0.0016
     17 C           9.0347   42.5403    8.4638 C.ar    1  UNL1        0.0188
     18 N          13.1878   39.3381    9.4894 N.pl3   1  UNL1       -0.3010
     19 N          11.1625   41.5043    9.1563 N.ar    1  UNL1       -0.3135
     20 N          10.4592   40.7751   11.1961 N.ar    1  UNL1       -0.2292
     21 C          14.8891   33.4374    8.4239 C.2     1  UNL1        0.2707
     22 N          14.9898   34.8362    8.7213 N.am    1  UNL1       -0.2808
     23 O          13.8404   32.7884    8.6779 O.2     1  UNL1       -0.2707
     24 H          15.8467   35.2720    8.5089 H       1  UNL1        0.1550
     25 C          16.0449   32.7389    7.7938 C.3     1  UNL1        0.2897
     26 O          15.6016   31.5811    7.0927 O.3     1  UNL1       -0.4656
     27 C          15.3459   31.5659    5.7170 C.ar    1  UNL1        0.1393
     28 C          16.3620   31.7969    4.7747 C.ar    1  UNL1        0.0369
     29 C          16.0731   31.7763    3.4072 C.ar    1  UNL1        0.0031
     30 C          14.7685   31.5263    2.9728 C.ar    1  UNL1        0.0002
     31 C          13.7532   31.2976    3.9058 C.ar    1  UNL1        0.0031
     32 C          14.0422   31.3181    5.2737 C.ar    1  UNL1        0.0369
@<TRIPOS>BOND
     1     8     7    1
     2     8    18    1
     3     9    18    1
     4     9    10    1
     5    10    11    1
     6    11    19    1
     7    13    14   ar
     8    13    20   ar
     9    15    16   ar
    10    17    12   ar
    11     2     3   ar
    12     4     5   ar
    13     5    22    1
    14     6     1   ar
    15    25    21    1
    16    25    26    1
    17    27    26    1
    18    28    29   ar
    19    30    31   ar
    20    32    27   ar
    21    18     1    1
    22    19    12   ar
    23    19     7   ar
    24    22    21   am
    25     7    20   ar
    26    12    13   ar
    27    14    15   ar
    28    16    17   ar
    29     1     2   ar
    30     3     4   ar
    31     5     6   ar
    32    21    23    2
    33    27    28   ar
    34    29    30   ar
    35    31    32   ar
    36    22    24    1
@<TRIPOS>MOLECULE
MolPort-008-317-398 36357030 CSSS00160790402 LN00864406 MCULE-2146435263 PubChem-45491985 ZINC000036357030
 32 36 0 0 0
SMALL
GASTEIGER

@<TRIPOS>ATOM
      1 C          12.8901   40.1736    9.1747 C.ar    1  UNL1        0.0494
      2 C          13.8642   40.7340    8.3317 C.ar    1  UNL1        0.0146
      3 C          13.6050   41.9150    7.6326 C.ar    1  UNL1        0.0025
      4 C          12.3689   42.5495    7.7688 C.ar    1  UNL1        0.0148
      5 C          11.3831   42.0078    8.6052 C.ar    1  UNL1        0.0516
      6 C          11.6508   40.8245    9.3006 C.ar    1  UNL1        0.0292
      7 C          15.3584   38.4432   10.7593 C.ar    1  UNL1        0.1406
      8 C          14.0082   38.9872   11.0887 C.3     1  UNL1        0.1556
      9 C          12.6145   37.6814    9.4110 C.3     1  UNL1        0.0932
     10 C          13.1871   36.4735   10.1485 C.3     1  UNL1        0.0459
     11 C          14.6295   36.2026    9.7288 C.3     1  UNL1        0.1090
     12 C          16.9098   37.1738   10.0468 C.ar    1  UNL1        0.0786
     13 C          17.4580   38.3176   10.5507 C.ar    1  UNL1        0.0984
     14 C          18.8329   38.5385   10.5513 C.ar    1  UNL1        0.0206
     15 C          19.6517   37.5303   10.0089 C.ar    1  UNL1        0.0016
     16 C          19.0841   36.3464    9.4870 C.ar    1  UNL1        0.0016
     17 C          17.6902   36.1545    9.5008 C.ar    1  UNL1        0.0188
     18 N          13.1572   38.9559    9.8990 N.pl3   1  UNL1       -0.3010
     19 N          15.5768   37.2311   10.1750 N.ar    1  UNL1       -0.3135
     20 N          16.4975   39.1402   11.0088 N.ar    1  UNL1       -0.2292
     21 C           9.7485   43.6226    9.7411 C.2     1  UNL1        0.2707
     22 N          10.1012   42.6289    8.7699 N.am    1  UNL1       -0.2808
     23 O          10.5846   44.0368   10.5867 O.2     1  UNL1       -0.2707
     24 H           9.3897   42.3433    8.1522 H       1  UNL1        0.1550
     25 C           8.3678   44.1831    9.7452 C.3     1  UNL1        0.2897
     26 O           7.7815   44.0657    8.4524 O.3     1  UNL1       -0.4656
     27 C           7.2481   42.8713    7.9554 C.ar    1  UNL1        0.1393
     28 C           7.5476   42.4107    6.6625 C.ar    1  UNL1        0.0369
     29 C           6.9969   41.2138    6.1954 C.ar    1  UNL1        0.0031
     30 C           6.1435   40.4708    7.0156 C.ar    1  UNL1        0.0002
     31 C           5.8405   40.9251    8.3023 C.ar    1  UNL1        0.0031
     32 C           6.3914   42.1223    8.7695 C.ar    1  UNL1        0.0369
@<TRIPOS>BOND
     1     8     7    1
     2     8    18    1
     3     9    18    1
     4     9    10    1
     5    10    11    1
     6    11    19    1
     7    13    14   ar
     8    13    20   ar
     9    15    16   ar
    10    17    12   ar
    11     2     3   ar
    12     4     5   ar
    13     5    22    1
    14     6     1   ar
    15    25    21    1
    16    25    26    1
    17    27    26    1
    18    28    29   ar
    19    30    31   ar
    20    32    27   ar
    21    18     1    1
    22    19    12   ar
    23    19     7   ar
    24    22    21   am
    25     7    20   ar
    26    12    13   ar
    27    14    15   ar
    28    16    17   ar
    29     1     2   ar
    30     3     4   ar
    31     5     6   ar
    32    21    23    2
    33    27    28   ar
    34    29    30   ar
    35    31    32   ar
    36    22    24    1
@<TRIPOS>MOLECULE
MolPort-008-317-398 36357030 CSSS00160790402 LN00864406 MCULE-2146435263 PubChem-45491985 ZINC000036357030
 32 36 0 0 0
SMALL
GASTEIGER

@<TRIPOS>ATOM
      1 C           9.7471   42.3192    8.9486 C.ar    1  UNL1        0.0494
      2 C          10.6024   43.1091    9.7346 C.ar    1  UNL1        0.0146
      3 C          10.1532   44.3112   10.2860 C.ar    1  UNL1        0.0025
      4 C           8.8433   44.7369   10.0581 C.ar    1  UNL1        0.0148
      5 C           7.9730   43.9637    9.2774 C.ar    1  UNL1        0.0516
      6 C           8.4314   42.7621    8.7284 C.ar    1  UNL1        0.0292
      7 C          11.6227   39.5577    9.6222 C.ar    1  UNL1        0.1406
      8 C          10.2248   39.8635    9.1983 C.3     1  UNL1        0.1556
      9 C          10.7072   41.0451    6.9999 C.3     1  UNL1        0.0932
     10 C          11.3750   39.7195    6.6423 C.3     1  UNL1        0.0459
     11 C          12.7429   39.5928    7.3076 C.3     1  UNL1        0.1090
     12 C          13.7186   39.1962    9.5737 C.ar    1  UNL1        0.0786
     13 C          13.2828   39.1532   10.8664 C.ar    1  UNL1        0.0984
     14 C          14.1492   38.9100   11.9291 C.ar    1  UNL1        0.0206
     15 C          15.5081   38.7062   11.6241 C.ar    1  UNL1        0.0016
     16 C          15.9592   38.7511   10.2859 C.ar    1  UNL1        0.0016
     17 C          15.0575   39.0000    9.2347 C.ar    1  UNL1        0.0188
     18 N          10.2086   41.0769    8.3810 N.pl3   1  UNL1       -0.3010
     19 N          12.6780   39.4464    8.7667 N.ar    1  UNL1       -0.3135
     20 N          11.9584   39.3793   10.9265 N.ar    1  UNL1       -0.2292
     21 C           5.7506   43.8496    8.0056 C.2     1  UNL1        0.2707
     22 N           6.6216   44.3679    9.0193 N.am    1  UNL1       -0.2808
     23 O           6.1368   42.9583    7.2042 O.2     1  UNL1       -0.2707
     24 H           6.2541   45.0744    9.5980 H       1  UNL1        0.1550
     25 C           4.3577   44.3692    7.9029 C.3     1  UNL1        0.2897
     26 O           3.6127   44.0227    9.0664 O.3     1  UNL1       -0.4656
     27 C           3.7195   42.7833    9.7073 C.ar    1  UNL1        0.1393
     28 C           4.5262   42.6070   10.8438 C.ar    1  UNL1        0.0369
     29 C           4.6123   41.3551   11.4598 C.ar    1  UNL1        0.0031
     30 C           3.8948   40.2723   10.9442 C.ar    1  UNL1        0.0002
     31 C           3.0920   40.4415    9.8126 C.ar    1  UNL1        0.0031
     32 C           3.0058   41.6936    9.1965 C.ar    1  UNL1        0.0369
@<TRIPOS>BOND
     1     8     7    1
     2     8    18    1
     3     9    18    1
     4     9    10    1
     5    10    11    1
     6    11    19    1
     7    13    14   ar
     8    13    20   ar
     9    15    16   ar
    10    17    12   ar
    11     2     3   ar
    12     4     5   ar
    13     5    22    1
    14     6     1   ar
    15    25    21    1
    16    25    26    1
    17    27    26    1
    18    28    29   ar
    19    30    31   ar
    20    32    27   ar
    21    18     1    1
    22    19    12   ar
    23    19     7   ar
    24    22    21   am
    25     7    20   ar
    26    12    13   ar
    27    14    15   ar
    28    16    17   ar
    29     1     2   ar
    30     3     4   ar
    31     5     6   ar
    32    21    23    2
    33    27    28   ar
    34    29    30   ar
    35    31    32   ar
    36    22    24    1
@<TRIPOS>MOLECULE
MolPort-008-317-398 36357030 CSSS00160790402 LN00864406 MCULE-2146435263 PubChem-45491985 ZINC000036357030
 32 36 0 0 0
SMALL
GASTEIGER

@<TRIPOS>ATOM
      1 C          11.4278   40.4523   10.2935 C.ar    1  UNL1        0.0494
      2 C          10.6518   39.3006   10.0824 C.ar    1  UNL1        0.0146
      3 C          11.2611   38.0634    9.8617 C.ar    1  UNL1        0.0025
      4 C          12.6535   37.9636    9.8501 C.ar    1  UNL1        0.0148
      5 C          13.4469   39.1001   10.0593 C.ar    1  UNL1        0.0516
      6 C          12.8283   40.3350   10.2785 C.ar    1  UNL1        0.0292
      7 C           8.4856   41.9069   11.2022 C.ar    1  UNL1        0.1406
      8 C           9.9039   41.9058   11.6670 C.3     1  UNL1        0.1556
      9 C          11.0241   42.8344    9.5826 C.3     1  UNL1        0.0932
     10 C          10.1040   44.0256    9.8386 C.3     1  UNL1        0.0459
     11 C           8.6750   43.7255    9.3938 C.3     1  UNL1        0.1090
     12 C           6.7114   42.3610   10.1197 C.ar    1  UNL1        0.0786
     13 C           6.4469   41.3771   11.0278 C.ar    1  UNL1        0.0984
     14 C           5.1813   40.8099   11.1531 C.ar    1  UNL1        0.0206
     15 C           4.1684   41.2905   10.3022 C.ar    1  UNL1        0.0016
     16 C           4.4424   42.3088    9.3619 C.ar    1  UNL1        0.0016
     17 C           5.7328   42.8605    9.2601 C.ar    1  UNL1        0.0188
     18 N          10.8002   41.7297   10.5241 N.pl3   1  UNL1       -0.3010
     19 N           8.0002   42.7158   10.2183 N.ar    1  UNL1       -0.3135
     20 N           7.5537   41.0694   11.7273 N.ar    1  UNL1       -0.2292
     21 C          15.7231   38.5970   11.1246 C.2     1  UNL1        0.2707
     22 N          14.8794   39.0385   10.0531 N.am    1  UNL1       -0.2808
     23 O          15.2405   38.2246   12.2264 O.2     1  UNL1       -0.2707
     24 H          15.3301   39.3295    9.2276 H       1  UNL1        0.1550
     25 C          17.2001   38.5698   10.9285 C.3     1  UNL1        0.2897
     26 O          17.5189   38.0649    9.6354 O.3     1  UNL1       -0.4656
     27 C          17.5457   36.7000    9.3277 C.ar    1  UNL1        0.1393
     28 C          16.4518   36.0579    8.7238 C.ar    1  UNL1        0.0369
     29 C          16.5100   34.6923    8.4307 C.ar    1  UNL1        0.0031
     30 C          17.6595   33.9601    8.7399 C.ar    1  UNL1        0.0002
     31 C          18.7501   34.5933    9.3426 C.ar    1  UNL1        0.0031
     32 C          18.6920   35.9592    9.6356 C.ar    1  UNL1        0.0369
@<TRIPOS>BOND
     1     8     7    1
     2     8    18    1
     3     9    18    1
     4     9    10    1
     5    10    11    1
     6    11    19    1
     7    13    14   ar
     8    13    20   ar
     9    15    16   ar
    10    17    12   ar
    11     2     3   ar
    12     4     5   ar
    13     5    22    1
    14     6     1   ar
    15    25    21    1
    16    25    26    1
    17    27    26    1
    18    28    29   ar
    19    30    31   ar
    20    32    27   ar
    21    18     1    1
    22    19    12   ar
    23    19     7   ar
    24    22    21   am
    25     7    20   ar
    26    12    13   ar
    27    14    15   ar
    28    16    17   ar
    29     1     2   ar
    30     3     4   ar
    31     5     6   ar
    32    21    23    2
    33    27    28   ar
    34    29    30   ar
    35    31    32   ar
    36    22    24    1
@<TRIPOS>MOLECULE
MolPort-008-317-398 36357030 CSSS00160790402 LN00864406 MCULE-2146435263 PubChem-45491985 ZINC000036357030
 32 36 0 0 0
SMALL
GASTEIGER

@<TRIPOS>ATOM
      1 C          12.4963   38.0768    9.2184 C.ar    1  UNL1        0.0494
      2 C          11.5940   37.3952   10.0519 C.ar    1  UNL1        0.0146
      3 C          11.8855   36.1102   10.5149 C.ar    1  UNL1        0.0025
      4 C          13.0830   35.4921   10.1501 C.ar    1  UNL1        0.0148
      5 C          13.9978   36.1545    9.3199 C.ar    1  UNL1        0.0516
      6 C          13.6973   37.4404    8.8601 C.ar    1  UNL1        0.0292
      7 C          10.6917   40.8754    9.9316 C.ar    1  UNL1        0.1406
      8 C          12.1200   40.5180    9.6874 C.3     1  UNL1        0.1556
      9 C          11.9243   39.6244    7.3156 C.3     1  UNL1        0.0932
     10 C          11.3941   41.0262    7.0245 C.3     1  UNL1        0.0459
     11 C           9.9478   41.1773    7.4885 C.3     1  UNL1        0.1090
     12 C           8.6522   41.3908    9.6145 C.ar    1  UNL1        0.0786
     13 C           8.8818   41.2592   10.9535 C.ar    1  UNL1        0.0984
     14 C           7.8741   41.4456   11.8963 C.ar    1  UNL1        0.0206
     15 C           6.5930   41.7796   11.4187 C.ar    1  UNL1        0.0016
     16 C           6.3553   41.9155   10.0326 C.ar    1  UNL1        0.0016
     17 C           7.3957   41.7197    9.1056 C.ar    1  UNL1        0.0188
     18 N          12.1979   39.4044    8.7418 N.pl3   1  UNL1       -0.3010
     19 N           9.7911   41.1567    8.9477 N.ar    1  UNL1       -0.3135
     20 N          10.1661   40.9325   11.1830 N.ar    1  UNL1       -0.2292
     21 C          16.5241   36.1827    8.8879 C.2     1  UNL1        0.2707
     22 N          15.2369   35.5525    8.9220 N.am    1  UNL1       -0.2808
     23 O          16.6690   37.3922    9.2068 O.2     1  UNL1       -0.2707
     24 H          15.1999   34.6090    8.6435 H       1  UNL1        0.1550
     25 C          17.7159   35.3890    8.4751 C.3     1  UNL1        0.2897
     26 O          17.8837   35.4459    7.0619 O.3     1  UNL1       -0.4656
     27 C          17.0617   34.7590    6.1615 C.ar    1  UNL1        0.1393
     28 C          16.9116   33.3633    6.2161 C.ar    1  UNL1        0.0369
     29 C          16.0836   32.7070    5.3007 C.ar    1  UNL1        0.0031
     30 C          15.4022   33.4400    4.3253 C.ar    1  UNL1        0.0002
     31 C          15.5492   34.8286    4.2650 C.ar    1  UNL1        0.0031
     32 C          16.3772   35.4851    5.1807 C.ar    1  UNL1        0.0369
@<TRIPOS>BOND
     1     8     7    1
     2     8    18    1
     3     9    18    1
     4     9    10    1
     5    10    11    1
     6    11    19    1
     7    13    14   ar
     8    13    20   ar
     9    15    16   ar
    10    17    12   ar
    11     2     3   ar
    12     4     5   ar
    13     5    22    1
    14     6     1   ar
    15    25    21    1
    16    25    26    1
    17    27    26    1
    18    28    29   ar
    19    30    31   ar
    20    32    27   ar
    21    18     1    1
    22    19    12   ar
    23    19     7   ar
    24    22    21   am
    25     7    20   ar
    26    12    13   ar
    27    14    15   ar
    28    16    17   ar
    29     1     2   ar
    30     3     4   ar
    31     5     6   ar
    32    21    23    2
    33    27    28   ar
    34    29    30   ar
    35    31    32   ar
    36    22    24    1
