@<TRIPOS>MOLECULE
Molport-046-958-382 MCULE-9124289403 PubChem-110093602
 32 35 0 0 0
SMALL
GASTEIGER

@<TRIPOS>ATOM
      1 C          12.7977   39.0154    9.1310 C.3     1  UNL1        0.0563
      2 C          12.5514   39.8503   10.3911 C.3     1  UNL1        0.0087
      3 C          13.4892   39.4711   11.5404 C.3     1  UNL1        0.0178
      4 C          14.0231   38.0512   11.3627 C.3     1  UNL1        0.0724
      5 C          14.2822   38.6652    8.9836 C.3     1  UNL1        0.0783
      6 N          14.8280   37.9260   10.1388 N.3     1  UNL1       -0.2685
      7 C           9.6778   39.2348    5.3045 C.3     1  UNL1        0.0521
      8 C          10.7946   39.8339    6.0793 C.ar    1  UNL1        0.0602
      9 C          11.3550   41.0453    5.6694 C.ar    1  UNL1        0.0294
     10 C          12.4081   41.6042    6.4051 C.ar    1  UNL1        0.0521
     11 C          12.8774   40.9356    7.5381 C.ar    1  UNL1        0.0294
     12 C          12.2966   39.7221    7.9164 C.ar    1  UNL1        0.0608
     13 N          11.2708   39.2026    7.1851 N.ar    1  UNL1       -0.2539
     14 N          13.0121   42.8516    6.0384 N.pl3   1  UNL1       -0.2927
     15 H          12.4544   43.4806    5.5261 H       1  UNL1        0.1541
     16 C          14.3468   43.2738    6.3434 C.ar    1  UNL1        0.1632
     17 C          16.3934   43.2433    7.2448 C.ar    1  UNL1        0.0678
     18 C          16.5125   44.4402    6.5382 C.ar    1  UNL1        0.0528
     19 C          17.5026   42.7000    8.0739 C.3     1  UNL1        0.0527
     20 N          15.2000   42.6000    7.1419 N.ar    1  UNL1       -0.2283
     21 S          15.0404   44.6779    5.7518 S.2     1  UNL1       -0.0512
     22 C          14.8327   36.5149    9.7846 C.3     1  UNL1        0.1023
     23 C          15.9282   36.2269    8.8133 C.ar    1  UNL1        0.0322
     24 C          17.2548   36.4877    9.1512 C.ar    1  UNL1        0.0988
     25 C          17.9667   35.6586    7.0530 C.ar    1  UNL1        0.1417
     26 C          15.6576   35.6668    7.5641 C.ar    1  UNL1        0.0988
     27 N          18.2475   36.2035    8.2674 N.ar    1  UNL1       -0.2294
     28 N          16.6777   35.3978    6.7068 N.ar    1  UNL1       -0.2294
     29 C          19.0694   35.3794    6.0891 C.3     1  UNL1        0.0977
     30 C          18.5736   34.5152    4.9408 C.3     1  UNL1        0.1502
     31 C          19.3451   36.3213    3.9336 C.3     1  UNL1        0.1741
     32 O          19.1210   34.9594    3.7359 O.3     1  UNL1       -0.3506
@<TRIPOS>BOND
     1     7     8    1
     2     8    13   ar
     3     9    10   ar
     4    10    14    1
     5    11    12   ar
     6     1    12    1
     7     1     2    1
     8     2     3    1
     9     3     4    1
    10     4     6    1
    11     5     6    1
    12     5     1    1
    13    22     6    1
    14    22    23    1
    15    24    27   ar
    16    25    28   ar
    17    26    23   ar
    18    29    25    1
    19    29    30    1
    20    30    32    1
    21    31    32    1
    22    16    21   ar
    23    17    20   ar
    24    18    21   ar
    25    19    17    1
    26    14    16    1
    27     8     9   ar
    28    10    11   ar
    29    12    13   ar
    30    23    24   ar
    31    25    27   ar
    32    26    28   ar
    33    16    20   ar
    34    17    18   ar
    35    14    15    1
@<TRIPOS>MOLECULE
Molport-046-958-382 MCULE-9124289403 PubChem-110093602
 32 35 0 0 0
SMALL
GASTEIGER

@<TRIPOS>ATOM
      1 C          12.8706   38.4186    8.7627 C.3     1  UNL1        0.0563
      2 C          11.9647   37.4710    9.5546 C.3     1  UNL1        0.0087
      3 C          12.7182   36.7209   10.6563 C.3     1  UNL1        0.0178
      4 C          14.2138   36.6629   10.3516 C.3     1  UNL1        0.0724
      5 C          13.9567   39.0208    9.6603 C.3     1  UNL1        0.0783
      6 N          14.8093   38.0065   10.3107 N.3     1  UNL1       -0.2685
      7 C           8.4894   40.4738    7.7600 C.3     1  UNL1        0.0521
      8 C           9.9685   40.4866    7.6239 C.ar    1  UNL1        0.0602
      9 C          10.5915   41.4987    6.8911 C.ar    1  UNL1        0.0294
     10 C          11.9869   41.5041    6.7671 C.ar    1  UNL1        0.0521
     11 C          12.7293   40.4931    7.3817 C.ar    1  UNL1        0.0294
     12 C          12.0724   39.4926    8.1030 C.ar    1  UNL1        0.0608
     13 N          10.7141   39.5133    8.2112 N.ar    1  UNL1       -0.2539
     14 N          12.6803   42.5257    6.0383 N.pl3   1  UNL1       -0.2927
     15 H          12.2132   42.9112    5.2622 H       1  UNL1        0.1541
     16 C          13.9854   43.0411    6.3271 C.ar    1  UNL1        0.1632
     17 C          16.0293   43.1699    7.2263 C.ar    1  UNL1        0.0678
     18 C          16.0732   44.3476    6.4798 C.ar    1  UNL1        0.0528
     19 C          17.1698   42.7257    8.0716 C.3     1  UNL1        0.0527
     20 N          14.8788   42.4496    7.1466 N.ar    1  UNL1       -0.2283
     21 S          14.5896   44.4655    5.6879 S.2     1  UNL1       -0.0512
     22 C          16.0284   37.8992    9.5240 C.3     1  UNL1        0.1023
     23 C          16.2175   36.4978    9.0478 C.ar    1  UNL1        0.0322
     24 C          15.4535   36.0042    7.9920 C.ar    1  UNL1        0.0988
     25 C          16.5848   33.9307    8.1245 C.ar    1  UNL1        0.1417
     26 C          17.1760   35.6623    9.6229 C.ar    1  UNL1        0.0988
     27 N          15.6469   34.7328    7.5522 N.ar    1  UNL1       -0.2294
     28 N          17.3390   34.3961    9.1560 N.ar    1  UNL1       -0.2294
     29 C          16.7615   32.5307    7.6430 C.3     1  UNL1        0.0977
     30 C          17.1413   31.6110    8.7924 C.3     1  UNL1        0.1502
     31 C          15.3203   30.5423    8.1492 C.3     1  UNL1        0.1741
     32 O          16.0052   30.9679    9.2867 O.3     1  UNL1       -0.3506
@<TRIPOS>BOND
     1     7     8    1
     2     8    13   ar
     3     9    10   ar
     4    10    14    1
     5    11    12   ar
     6     1    12    1
     7     1     2    1
     8     2     3    1
     9     3     4    1
    10     4     6    1
    11     5     6    1
    12     5     1    1
    13    22     6    1
    14    22    23    1
    15    24    27   ar
    16    25    28   ar
    17    26    23   ar
    18    29    25    1
    19    29    30    1
    20    30    32    1
    21    31    32    1
    22    16    21   ar
    23    17    20   ar
    24    18    21   ar
    25    19    17    1
    26    14    16    1
    27     8     9   ar
    28    10    11   ar
    29    12    13   ar
    30    23    24   ar
    31    25    27   ar
    32    26    28   ar
    33    16    20   ar
    34    17    18   ar
    35    14    15    1
@<TRIPOS>MOLECULE
Molport-046-958-382 MCULE-9124289403 PubChem-110093602
 32 35 0 0 0
SMALL
GASTEIGER

@<TRIPOS>ATOM
      1 C          13.4020   39.2886   10.1021 C.3     1  UNL1        0.0563
      2 C          12.9297   38.1496    9.1937 C.3     1  UNL1        0.0087
      3 C          11.4812   38.3285    8.7310 C.3     1  UNL1        0.0178
      4 C          10.7119   39.2382    9.6869 C.3     1  UNL1        0.0724
      5 C          12.7604   40.6194    9.6959 C.3     1  UNL1        0.0783
      6 N          11.2848   40.5917    9.7230 N.3     1  UNL1       -0.2685
      7 C          17.8231   37.3220   11.1075 C.3     1  UNL1        0.0521
      8 C          17.0173   38.4491   10.5722 C.ar    1  UNL1        0.0602
      9 C          17.6560   39.5835   10.0674 C.ar    1  UNL1        0.0294
     10 C          16.8894   40.6427    9.5644 C.ar    1  UNL1        0.0521
     11 C          15.4963   40.5417    9.5780 C.ar    1  UNL1        0.0294
     12 C          14.8902   39.3938   10.0958 C.ar    1  UNL1        0.0608
     13 N          15.6598   38.3765   10.5752 N.ar    1  UNL1       -0.2539
     14 N          17.4918   41.8251    9.0218 N.pl3   1  UNL1       -0.2927
     15 H          18.3758   42.0747    9.3758 H       1  UNL1        0.1541
     16 C          16.9351   42.6796    8.0156 C.ar    1  UNL1        0.1632
     17 C          15.4458   43.5051    6.5655 C.ar    1  UNL1        0.0678
     18 C          16.4807   44.4053    6.3113 C.ar    1  UNL1        0.0528
     19 C          14.1438   43.5735    5.8493 C.3     1  UNL1        0.0527
     20 N          15.6944   42.5511    7.5019 N.ar    1  UNL1       -0.2283
     21 S          17.7543   43.9657    7.3247 S.2     1  UNL1       -0.0512
     22 C          10.8653   41.1893   10.9814 C.3     1  UNL1        0.1023
     23 C           9.3825   41.3528   11.0098 C.ar    1  UNL1        0.0322
     24 C           8.6760   41.1611   12.1957 C.ar    1  UNL1        0.0988
     25 C           6.6525   41.6958   11.0929 C.ar    1  UNL1        0.1417
     26 C           8.6747   41.7271    9.8669 C.ar    1  UNL1        0.0988
     27 N           7.3278   41.3318   12.2163 N.ar    1  UNL1       -0.2294
     28 N           7.3261   41.8868    9.9271 N.ar    1  UNL1       -0.2294
     29 C           5.1702   41.8518   11.1326 C.3     1  UNL1        0.0977
     30 C           4.4976   40.5217   11.4317 C.3     1  UNL1        0.1502
     31 C           3.1392   41.3744    9.9153 C.3     1  UNL1        0.1741
     32 O           3.6536   40.1642   10.3788 O.3     1  UNL1       -0.3506
@<TRIPOS>BOND
     1     7     8    1
     2     8    13   ar
     3     9    10   ar
     4    10    14    1
     5    11    12   ar
     6     1    12    1
     7     1     2    1
     8     2     3    1
     9     3     4    1
    10     4     6    1
    11     5     6    1
    12     5     1    1
    13    22     6    1
    14    22    23    1
    15    24    27   ar
    16    25    28   ar
    17    26    23   ar
    18    29    25    1
    19    29    30    1
    20    30    32    1
    21    31    32    1
    22    16    21   ar
    23    17    20   ar
    24    18    21   ar
    25    19    17    1
    26    14    16    1
    27     8     9   ar
    28    10    11   ar
    29    12    13   ar
    30    23    24   ar
    31    25    27   ar
    32    26    28   ar
    33    16    20   ar
    34    17    18   ar
    35    14    15    1
@<TRIPOS>MOLECULE
Molport-046-958-382 MCULE-9124289403 PubChem-110093602
 32 35 0 0 0
SMALL
GASTEIGER

@<TRIPOS>ATOM
      1 C          13.8107   38.7318   10.4365 C.3     1  UNL1        0.0563
      2 C          13.3932   37.4080    9.7893 C.3     1  UNL1        0.0087
      3 C          11.9294   37.4088    9.3404 C.3     1  UNL1        0.0178
      4 C          11.1223   38.4492   10.1144 C.3     1  UNL1        0.0724
      5 C          13.0842   39.9151    9.7886 C.3     1  UNL1        0.0783
      6 N          11.6135   39.8116    9.8615 N.3     1  UNL1       -0.2685
      7 C          18.3686   36.9893   11.2201 C.3     1  UNL1        0.0521
      8 C          17.4821   38.0792   10.7377 C.ar    1  UNL1        0.0602
      9 C          18.0378   39.2526   10.2239 C.ar    1  UNL1        0.0294
     10 C          17.1954   40.2762    9.7710 C.ar    1  UNL1        0.0521
     11 C          15.8115   40.1012    9.8428 C.ar    1  UNL1        0.0294
     12 C          15.2897   38.9160   10.3679 C.ar    1  UNL1        0.0608
     13 N          16.1317   37.9346   10.7978 N.ar    1  UNL1       -0.2539
     14 N          17.7107   41.4961    9.2218 N.pl3   1  UNL1       -0.2927
     15 H          18.6345   41.7358    9.4636 H       1  UNL1        0.1541
     16 C          17.0150   42.4011    8.3560 C.ar    1  UNL1        0.1632
     17 C          15.4097   43.1908    7.0138 C.ar    1  UNL1        0.0678
     18 C          16.2669   44.2897    6.9552 C.ar    1  UNL1        0.0528
     19 C          14.1208   43.1521    6.2721 C.3     1  UNL1        0.0527
     20 N          15.8208   42.1473    7.7824 N.ar    1  UNL1       -0.2283
     21 S          17.5930   43.9120    7.9252 S.2     1  UNL1       -0.0512
     22 C          11.1789   40.6275   10.9849 C.3     1  UNL1        0.1023
     23 C          10.2857   41.7261   10.5141 C.ar    1  UNL1        0.0322
     24 C           8.9075   41.5311   10.4437 C.ar    1  UNL1        0.0988
     25 C           8.6172   43.7556    9.6929 C.ar    1  UNL1        0.1417
     26 C          10.7996   42.9751   10.1632 C.ar    1  UNL1        0.0988
     27 N           8.1001   42.5441   10.0326 N.ar    1  UNL1       -0.2294
     28 N           9.9597   43.9632    9.7555 N.ar    1  UNL1       -0.2294
     29 C           7.7150   44.8442    9.2196 C.3     1  UNL1        0.0977
     30 C           6.6131   44.2828    8.3356 C.3     1  UNL1        0.1502
     31 C           4.5663   44.6908    7.6172 C.3     1  UNL1        0.1741
     32 O           5.3714   44.7652    8.7531 O.3     1  UNL1       -0.3506
@<TRIPOS>BOND
     1     7     8    1
     2     8    13   ar
     3     9    10   ar
     4    10    14    1
     5    11    12   ar
     6     1    12    1
     7     1     2    1
     8     2     3    1
     9     3     4    1
    10     4     6    1
    11     5     6    1
    12     5     1    1
    13    22     6    1
    14    22    23    1
    15    24    27   ar
    16    25    28   ar
    17    26    23   ar
    18    29    25    1
    19    29    30    1
    20    30    32    1
    21    31    32    1
    22    16    21   ar
    23    17    20   ar
    24    18    21   ar
    25    19    17    1
    26    14    16    1
    27     8     9   ar
    28    10    11   ar
    29    12    13   ar
    30    23    24   ar
    31    25    27   ar
    32    26    28   ar
    33    16    20   ar
    34    17    18   ar
    35    14    15    1
@<TRIPOS>MOLECULE
Molport-046-958-382 MCULE-9124289403 PubChem-110093602
 32 35 0 0 0
SMALL
GASTEIGER

@<TRIPOS>ATOM
      1 C           9.5813   40.9815    8.7109 C.3     1  UNL1        0.0563
      2 C           9.2401   39.8224    7.7698 C.3     1  UNL1        0.0087
      3 C          10.1042   38.5844    8.0244 C.3     1  UNL1        0.0178
      4 C          11.4094   38.9643    8.7208 C.3     1  UNL1        0.0724
      5 C          10.0037   40.4651   10.0904 C.3     1  UNL1        0.0783
      6 N          11.1634   39.5530   10.0454 N.3     1  UNL1       -0.2685
      7 C           7.8839   45.6164    8.9583 C.3     1  UNL1        0.0521
      8 C           7.6147   44.1557    8.9411 C.ar    1  UNL1        0.0602
      9 C           6.3017   43.6886    9.0279 C.ar    1  UNL1        0.0294
     10 C           6.0556   42.3096    9.0112 C.ar    1  UNL1        0.0521
     11 C           7.1330   41.4267    8.9074 C.ar    1  UNL1        0.0294
     12 C           8.4347   41.9289    8.8279 C.ar    1  UNL1        0.0608
     13 N           8.6457   43.2751    8.8423 N.ar    1  UNL1       -0.2539
     14 N           4.7275   41.7745    9.0837 N.pl3   1  UNL1       -0.2927
     15 H           4.2983   41.5363    8.2303 H       1  UNL1        0.1541
     16 C           3.9629   41.5520   10.2746 C.ar    1  UNL1        0.1632
     17 C           2.4338   41.8946   11.8706 C.ar    1  UNL1        0.0678
     18 C           2.9761   40.7122   12.3746 C.ar    1  UNL1        0.0528
     19 C           1.3286   42.6146   12.5582 C.3     1  UNL1        0.0527
     20 N           2.9778   42.3614   10.7151 N.ar    1  UNL1       -0.2283
     21 S           4.1894   40.2483   11.3001 S.2     1  UNL1       -0.0512
     22 C          12.3423   40.3376   10.3791 C.3     1  UNL1        0.1023
     23 C          12.8361   41.0702    9.1767 C.ar    1  UNL1        0.0322
     24 C          12.1539   42.1905    8.7060 C.ar    1  UNL1        0.0988
     25 C          13.7578   42.4626    6.9884 C.ar    1  UNL1        0.1417
     26 C          13.9995   40.6735    8.5161 C.ar    1  UNL1        0.0988
     27 N          12.6226   42.8631    7.6219 N.ar    1  UNL1       -0.2294
     28 N          14.4359   41.3713    7.4342 N.ar    1  UNL1       -0.2294
     29 C          14.2390   43.2000    5.7852 C.3     1  UNL1        0.0977
     30 C          14.5396   44.6502    6.1281 C.3     1  UNL1        0.1502
     31 C          16.7067   44.4543    6.4986 C.3     1  UNL1        0.1741
     32 O          15.7854   45.0154    5.6151 O.3     1  UNL1       -0.3506
@<TRIPOS>BOND
     1     7     8    1
     2     8    13   ar
     3     9    10   ar
     4    10    14    1
     5    11    12   ar
     6     1    12    1
     7     1     2    1
     8     2     3    1
     9     3     4    1
    10     4     6    1
    11     5     6    1
    12     5     1    1
    13    22     6    1
    14    22    23    1
    15    24    27   ar
    16    25    28   ar
    17    26    23   ar
    18    29    25    1
    19    29    30    1
    20    30    32    1
    21    31    32    1
    22    16    21   ar
    23    17    20   ar
    24    18    21   ar
    25    19    17    1
    26    14    16    1
    27     8     9   ar
    28    10    11   ar
    29    12    13   ar
    30    23    24   ar
    31    25    27   ar
    32    26    28   ar
    33    16    20   ar
    34    17    18   ar
    35    14    15    1
@<TRIPOS>MOLECULE
Molport-046-958-382 MCULE-9124289403 PubChem-110093602
 32 35 0 0 0
SMALL
GASTEIGER

@<TRIPOS>ATOM
      1 C           9.6798   41.7065    9.7609 C.3     1  UNL1        0.0563
      2 C           9.3216   41.9150   11.2353 C.3     1  UNL1        0.0087
      3 C           7.8154   41.8222   11.4934 C.3     1  UNL1        0.0178
      4 C           7.0251   42.1022   10.2167 C.3     1  UNL1        0.0724
      5 C           8.7283   40.7041    9.0993 C.3     1  UNL1        0.0783
      6 N           7.3095   41.1038    9.1755 N.3     1  UNL1       -0.2685
      7 C          13.6189   39.3248   11.5596 C.3     1  UNL1        0.0521
      8 C          12.9918   40.1189   10.4722 C.ar    1  UNL1        0.0602
      9 C          13.7285   40.4389    9.3301 C.ar    1  UNL1        0.0294
     10 C          13.1304   41.1884    8.3087 C.ar    1  UNL1        0.0521
     11 C          11.8041   41.6015    8.4543 C.ar    1  UNL1        0.0294
     12 C          11.0982   41.2680    9.6133 C.ar    1  UNL1        0.0608
     13 N          11.7028   40.5345   10.5898 N.ar    1  UNL1       -0.2539
     14 N          13.8347   41.5341    7.1088 N.pl3   1  UNL1       -0.2927
     15 H          13.6289   41.0036    6.3054 H       1  UNL1        0.1541
     16 C          14.8083   42.5749    6.9626 C.ar    1  UNL1        0.1632
     17 C          16.6817   43.7471    7.3071 C.ar    1  UNL1        0.0678
     18 C          16.1190   44.5674    6.3291 C.ar    1  UNL1        0.0528
     19 C          17.9929   44.0542    7.9390 C.3     1  UNL1        0.0527
     20 N          15.9602   42.6502    7.6605 N.ar    1  UNL1       -0.2283
     21 S          14.6504   43.8592    5.9004 S.2     1  UNL1       -0.0512
     22 C           6.9656   41.7185    7.9025 C.3     1  UNL1        0.1023
     23 C           7.7769   41.1217    6.8016 C.ar    1  UNL1        0.0322
     24 C           7.3885   39.9194    6.2135 C.ar    1  UNL1        0.0988
     25 C           9.2344   40.0290    4.7380 C.ar    1  UNL1        0.1417
     26 C           8.9188   41.7609    6.3171 C.ar    1  UNL1        0.0988
     27 N           8.1230   39.3936    5.1979 N.ar    1  UNL1       -0.2294
     28 N           9.6279   41.2029    5.3005 N.ar    1  UNL1       -0.2294
     29 C          10.0396   39.4205    3.6404 C.3     1  UNL1        0.0977
     30 C           9.1827   38.4895    2.7978 C.3     1  UNL1        0.1502
     31 C          10.7265   37.1085    3.5601 C.3     1  UNL1        0.1741
     32 O           9.3827   37.1656    3.1928 O.3     1  UNL1       -0.3506
@<TRIPOS>BOND
     1     7     8    1
     2     8    13   ar
     3     9    10   ar
     4    10    14    1
     5    11    12   ar
     6     1    12    1
     7     1     2    1
     8     2     3    1
     9     3     4    1
    10     4     6    1
    11     5     6    1
    12     5     1    1
    13    22     6    1
    14    22    23    1
    15    24    27   ar
    16    25    28   ar
    17    26    23   ar
    18    29    25    1
    19    29    30    1
    20    30    32    1
    21    31    32    1
    22    16    21   ar
    23    17    20   ar
    24    18    21   ar
    25    19    17    1
    26    14    16    1
    27     8     9   ar
    28    10    11   ar
    29    12    13   ar
    30    23    24   ar
    31    25    27   ar
    32    26    28   ar
    33    16    20   ar
    34    17    18   ar
    35    14    15    1
@<TRIPOS>MOLECULE
Molport-046-958-382 MCULE-9124289403 PubChem-110093602
 32 35 0 0 0
SMALL
GASTEIGER

@<TRIPOS>ATOM
      1 C          11.2161   40.9517    9.7315 C.3     1  UNL1        0.0563
      2 C          10.8011   40.9888    8.2577 C.3     1  UNL1        0.0087
      3 C          11.8052   40.2782    7.3461 C.3     1  UNL1        0.0178
      4 C          13.1828   40.2082    8.0021 C.3     1  UNL1        0.0724
      5 C          11.9458   39.6465   10.0658 C.3     1  UNL1        0.0783
      6 N          13.1506   39.4208    9.2433 N.3     1  UNL1       -0.2685
      7 C           9.2938   41.1678   14.2793 C.3     1  UNL1        0.0521
      8 C           9.1088   41.2525   12.8080 C.ar    1  UNL1        0.0602
      9 C           7.8430   41.5133   12.2793 C.ar    1  UNL1        0.0294
     10 C           7.6761   41.5916   10.8906 C.ar    1  UNL1        0.0521
     11 C           8.7838   41.4069   10.0600 C.ar    1  UNL1        0.0294
     12 C          10.0351   41.1421   10.6231 C.ar    1  UNL1        0.0608
     13 N          10.1703   41.0751   11.9775 N.ar    1  UNL1       -0.2539
     14 N           6.4028   41.8700   10.2935 N.pl3   1  UNL1       -0.2927
     15 H           5.6215   41.4146   10.6829 H       1  UNL1        0.1541
     16 C           6.1542   42.7448    9.1866 C.ar    1  UNL1        0.1632
     17 C           5.0976   44.2381    7.8998 C.ar    1  UNL1        0.0678
     18 C           6.2232   44.0546    7.0964 C.ar    1  UNL1        0.0528
     19 C           3.9970   45.1642    7.5203 C.3     1  UNL1        0.0527
     20 N           5.0553   43.5153    9.0507 N.ar    1  UNL1       -0.2283
     21 S           7.1980   42.9321    7.8913 S.2     1  UNL1       -0.0512
     22 C          14.2974   39.8405   10.0340 C.3     1  UNL1        0.1023
     23 C          15.1829   40.7337    9.2312 C.ar    1  UNL1        0.0322
     24 C          14.6329   41.6555    8.3424 C.ar    1  UNL1        0.0988
     25 C          16.7981   42.4222    7.7762 C.ar    1  UNL1        0.1417
     26 C          16.5707   40.6897    9.3698 C.ar    1  UNL1        0.0988
     27 N          15.4469   42.4786    7.6301 N.ar    1  UNL1       -0.2294
     28 N          17.3517   41.5285    8.6389 N.ar    1  UNL1       -0.2294
     29 C          17.6729   43.3167    6.9651 C.3     1  UNL1        0.0977
     30 C          16.9058   43.8939    5.7863 C.3     1  UNL1        0.1502
     31 C          15.1706   45.2551    5.6973 C.3     1  UNL1        0.1741
     32 O          16.5146   45.2046    6.0649 O.3     1  UNL1       -0.3506
@<TRIPOS>BOND
     1     7     8    1
     2     8    13   ar
     3     9    10   ar
     4    10    14    1
     5    11    12   ar
     6     1    12    1
     7     1     2    1
     8     2     3    1
     9     3     4    1
    10     4     6    1
    11     5     6    1
    12     5     1    1
    13    22     6    1
    14    22    23    1
    15    24    27   ar
    16    25    28   ar
    17    26    23   ar
    18    29    25    1
    19    29    30    1
    20    30    32    1
    21    31    32    1
    22    16    21   ar
    23    17    20   ar
    24    18    21   ar
    25    19    17    1
    26    14    16    1
    27     8     9   ar
    28    10    11   ar
    29    12    13   ar
    30    23    24   ar
    31    25    27   ar
    32    26    28   ar
    33    16    20   ar
    34    17    18   ar
    35    14    15    1
@<TRIPOS>MOLECULE
Molport-046-958-382 MCULE-9124289403 PubChem-110093602
 32 35 0 0 0
SMALL
GASTEIGER

@<TRIPOS>ATOM
      1 C          11.6892   40.4228    9.4806 C.3     1  UNL1        0.0563
      2 C          11.1487   39.6141    8.2976 C.3     1  UNL1        0.0087
      3 C           9.9866   40.3145    7.5883 C.3     1  UNL1        0.0178
      4 C           9.3043   41.3159    8.5182 C.3     1  UNL1        0.0724
      5 C          11.5967   41.9277    9.2073 C.3     1  UNL1        0.0783
      6 N          10.2234   42.3891    8.9241 N.3     1  UNL1       -0.2685
      7 C          14.8505   37.4389   11.8315 C.3     1  UNL1        0.0521
      8 C          14.6143   38.5914   10.9246 C.ar    1  UNL1        0.0602
      9 C          15.6985   39.2831   10.3810 C.ar    1  UNL1        0.0294
     10 C          15.4680   40.3691    9.5266 C.ar    1  UNL1        0.0521
     11 C          14.1531   40.7389    9.2347 C.ar    1  UNL1        0.0294
     12 C          13.0917   40.0275    9.8007 C.ar    1  UNL1        0.0608
     13 N          13.3441   38.9725   10.6256 N.ar    1  UNL1       -0.2539
     14 N          16.5426   41.1068    8.9296 N.pl3   1  UNL1       -0.2927
     15 H          17.4550   40.7808    9.1044 H       1  UNL1        0.1541
     16 C          16.4207   42.2712    8.1039 C.ar    1  UNL1        0.1632
     17 C          15.5458   43.6996    6.6219 C.ar    1  UNL1        0.0678
     18 C          16.7104   44.4114    6.9102 C.ar    1  UNL1        0.0528
     19 C          14.5364   44.1947    5.6478 C.3     1  UNL1        0.0527
     20 N          15.3850   42.5184    7.2759 N.ar    1  UNL1       -0.2283
     21 S          17.5588   43.4976    8.0448 S.2     1  UNL1       -0.0512
     22 C           9.6933   42.9484   10.1582 C.3     1  UNL1        0.1023
     23 C           8.3132   42.4393   10.4083 C.ar    1  UNL1        0.0322
     24 C           8.0311   41.7079   11.5605 C.ar    1  UNL1        0.0988
     25 C           5.7633   41.5322   10.9103 C.ar    1  UNL1        0.1417
     26 C           7.2725   42.7052    9.5176 C.ar    1  UNL1        0.0988
     27 N           6.7665   41.2654   11.7894 N.ar    1  UNL1       -0.2294
     28 N           6.0210   42.2444    9.7808 N.ar    1  UNL1       -0.2294
     29 C           4.3892   41.0144   11.1689 C.3     1  UNL1        0.0977
     30 C           3.4121   42.1611   11.3721 C.3     1  UNL1        0.1502
     31 C           2.6256   41.2020    9.5464 C.3     1  UNL1        0.1741
     32 O           2.7448   42.4393   10.1780 O.3     1  UNL1       -0.3506
@<TRIPOS>BOND
     1     7     8    1
     2     8    13   ar
     3     9    10   ar
     4    10    14    1
     5    11    12   ar
     6     1    12    1
     7     1     2    1
     8     2     3    1
     9     3     4    1
    10     4     6    1
    11     5     6    1
    12     5     1    1
    13    22     6    1
    14    22    23    1
    15    24    27   ar
    16    25    28   ar
    17    26    23   ar
    18    29    25    1
    19    29    30    1
    20    30    32    1
    21    31    32    1
    22    16    21   ar
    23    17    20   ar
    24    18    21   ar
    25    19    17    1
    26    14    16    1
    27     8     9   ar
    28    10    11   ar
    29    12    13   ar
    30    23    24   ar
    31    25    27   ar
    32    26    28   ar
    33    16    20   ar
    34    17    18   ar
    35    14    15    1
@<TRIPOS>MOLECULE
Molport-046-958-382 MCULE-9124289403 PubChem-110093602
 32 35 0 0 0
SMALL
GASTEIGER

@<TRIPOS>ATOM
      1 C           7.3842   41.8778    6.4875 C.3     1  UNL1        0.0563
      2 C           7.2969   43.3745    6.1746 C.3     1  UNL1        0.0087
      3 C           6.4227   44.1345    7.1757 C.3     1  UNL1        0.0178
      4 C           5.4392   43.1919    7.8664 C.3     1  UNL1        0.0724
      5 C           7.3472   41.6279    7.9988 C.3     1  UNL1        0.0783
      6 N           6.1374   42.1643    8.6526 N.3     1  UNL1       -0.2685
      7 C           9.4746   38.4424    3.6147 C.3     1  UNL1        0.0521
      8 C           9.6150   39.6302    4.4956 C.ar    1  UNL1        0.0602
      9 C          10.8792   40.1705    4.7395 C.ar    1  UNL1        0.0294
     10 C          11.0037   41.2907    5.5715 C.ar    1  UNL1        0.0521
     11 C           9.8562   41.8464    6.1419 C.ar    1  UNL1        0.0294
     12 C           8.6073   41.2765    5.8805 C.ar    1  UNL1        0.0608
     13 N           8.5140   40.1892    5.0643 N.ar    1  UNL1       -0.2539
     14 N          12.2745   41.8950    5.8459 N.pl3   1  UNL1       -0.2927
     15 H          12.5701   42.6045    5.2306 H       1  UNL1        0.1541
     16 C          13.1570   41.5691    6.9263 C.ar    1  UNL1        0.1632
     17 C          15.0166   41.5378    8.1686 C.ar    1  UNL1        0.0678
     18 C          14.2360   40.7048    8.9703 C.ar    1  UNL1        0.0528
     19 C          16.4206   41.8835    8.5180 C.3     1  UNL1        0.0527
     20 N          14.4257   42.0130    7.0400 N.ar    1  UNL1       -0.2283
     21 S          12.7373   40.5781    8.2087 S.2     1  UNL1       -0.0512
     22 C           5.2070   41.0573    8.8128 C.3     1  UNL1        0.1023
     23 C           4.3211   41.2898    9.9907 C.ar    1  UNL1        0.0322
     24 C           3.1516   42.0355    9.8553 C.ar    1  UNL1        0.0988
     25 C           2.6501   41.6899   12.1412 C.ar    1  UNL1        0.1417
     26 C           4.6229   40.7469   11.2403 C.ar    1  UNL1        0.0988
     27 N           2.3408   42.2252   10.9295 N.ar    1  UNL1       -0.2294
     28 N           3.7875   40.9597   12.2913 N.ar    1  UNL1       -0.2294
     29 C           1.7593   41.9329   13.3120 C.3     1  UNL1        0.0977
     30 C           0.6650   42.9269   12.9576 C.3     1  UNL1        0.1502
     31 C           0.5056   42.5174   15.1207 C.3     1  UNL1        0.1741
     32 O          -0.0031   43.3359   14.1130 O.3     1  UNL1       -0.3506
@<TRIPOS>BOND
     1     7     8    1
     2     8    13   ar
     3     9    10   ar
     4    10    14    1
     5    11    12   ar
     6     1    12    1
     7     1     2    1
     8     2     3    1
     9     3     4    1
    10     4     6    1
    11     5     6    1
    12     5     1    1
    13    22     6    1
    14    22    23    1
    15    24    27   ar
    16    25    28   ar
    17    26    23   ar
    18    29    25    1
    19    29    30    1
    20    30    32    1
    21    31    32    1
    22    16    21   ar
    23    17    20   ar
    24    18    21   ar
    25    19    17    1
    26    14    16    1
    27     8     9   ar
    28    10    11   ar
    29    12    13   ar
    30    23    24   ar
    31    25    27   ar
    32    26    28   ar
    33    16    20   ar
    34    17    18   ar
    35    14    15    1
@<TRIPOS>MOLECULE
Molport-046-958-382 MCULE-9124289403 PubChem-110093602
 32 35 0 0 0
SMALL
GASTEIGER

@<TRIPOS>ATOM
      1 C          12.0363   40.1176    9.7897 C.3     1  UNL1        0.0563
      2 C          11.6664   40.4390   11.2407 C.3     1  UNL1        0.0087
      3 C          10.1869   40.7969   11.4050 C.3     1  UNL1        0.0178
      4 C           9.5935   41.2827   10.0840 C.3     1  UNL1        0.0724
      5 C          10.8739   39.4324    9.0636 C.3     1  UNL1        0.0783
      6 N           9.6339   40.2331    9.0553 N.3     1  UNL1       -0.2685
      7 C          16.7598   39.3737   11.0385 C.3     1  UNL1        0.0521
      8 C          15.5375   38.9153   10.3298 C.ar    1  UNL1        0.0602
      9 C          15.5530   37.7114    9.6226 C.ar    1  UNL1        0.0294
     10 C          14.3964   37.2856    8.9566 C.ar    1  UNL1        0.0521
     11 C          13.2470   38.0771    9.0139 C.ar    1  UNL1        0.0294
     12 C          13.2687   39.2791    9.7265 C.ar    1  UNL1        0.0608
     13 N          14.4060   39.6678   10.3687 N.ar    1  UNL1       -0.2539
     14 N          14.3512   36.0523    8.2269 N.pl3   1  UNL1       -0.2927
     15 H          13.4828   35.7987    7.8384 H       1  UNL1        0.1541
     16 C          15.4439   35.1524    8.0069 C.ar    1  UNL1        0.1632
     17 C          16.8044   33.4035    8.3116 C.ar    1  UNL1        0.0678
     18 C          17.4446   33.9536    7.2010 C.ar    1  UNL1        0.0528
     19 C          17.2983   32.1691    8.9789 C.3     1  UNL1        0.0527
     20 N          15.7035   34.0637    8.7599 N.ar    1  UNL1       -0.2283
     21 S          16.5664   35.3290    6.7775 S.2     1  UNL1       -0.0512
     22 C           9.5645   40.9073    7.7679 C.3     1  UNL1        0.1023
     23 C          10.8944   41.4816    7.4102 C.ar    1  UNL1        0.0322
     24 C          11.4050   42.5683    8.1178 C.ar    1  UNL1        0.0988
     25 C          13.3664   42.5252    6.7957 C.ar    1  UNL1        0.1417
     26 C          11.6671   40.9321    6.3863 C.ar    1  UNL1        0.0988
     27 N          12.6261   43.0719    7.7975 N.ar    1  UNL1       -0.2294
     28 N          12.8833   41.4646    6.0948 N.ar    1  UNL1       -0.2294
     29 C          14.6919   43.1106    6.4444 C.3     1  UNL1        0.0977
     30 C          14.5958   43.9314    5.1684 C.3     1  UNL1        0.1502
     31 C          16.3683   44.8205    6.1377 C.3     1  UNL1        0.1741
     32 O          15.2831   45.1367    5.3213 O.3     1  UNL1       -0.3506
@<TRIPOS>BOND
     1     7     8    1
     2     8    13   ar
     3     9    10   ar
     4    10    14    1
     5    11    12   ar
     6     1    12    1
     7     1     2    1
     8     2     3    1
     9     3     4    1
    10     4     6    1
    11     5     6    1
    12     5     1    1
    13    22     6    1
    14    22    23    1
    15    24    27   ar
    16    25    28   ar
    17    26    23   ar
    18    29    25    1
    19    29    30    1
    20    30    32    1
    21    31    32    1
    22    16    21   ar
    23    17    20   ar
    24    18    21   ar
    25    19    17    1
    26    14    16    1
    27     8     9   ar
    28    10    11   ar
    29    12    13   ar
    30    23    24   ar
    31    25    27   ar
    32    26    28   ar
    33    16    20   ar
    34    17    18   ar
    35    14    15    1
