@<TRIPOS>MOLECULE
MolPort-005-100-458 12467958 CHEMBL1308785 CSSS00159514878 PubChem-24819002 ZINC000012467958
 29 32 0 0 0
SMALL
GASTEIGER

@<TRIPOS>ATOM
      1 C          11.8947   42.4250    9.1667 C.3     1  UNL1        0.1093
      2 C          12.1218   41.2365   10.1117 C.3     1  UNL1        0.0418
      3 C          10.8401   40.7435   10.8090 C.3     1  UNL1        0.0744
      4 C          10.0435   42.9756   10.8401 C.3     1  UNL1        0.0744
      5 C          10.9933   43.5160    9.7686 C.3     1  UNL1        0.0418
      6 N           9.6814   41.5952   10.5357 N.3     1  UNL1       -0.2688
      7 C          12.1374   41.6561    6.8044 C.ar    1  UNL1        0.1325
      8 C          11.3226   41.2342    5.7704 C.ar    1  UNL1        0.0565
      9 C          10.0447   41.3218    6.3113 C.ar    1  UNL1        0.1230
     10 N          10.1183   41.7677    7.5831 N.ar    1  UNL1       -0.1666
     11 N          11.3910   41.9737    7.8712 N.ar    1  UNL1       -0.2394
     12 O          13.7494   44.0718    6.5685 O.2     1  UNL1       -0.2748
     13 C          14.3249   42.9527    6.6594 C.2     1  UNL1        0.2267
     14 N          13.5680   41.7441    6.7827 N.am    1  UNL1       -0.2695
     15 H          14.0725   40.9021    6.8590 H       1  UNL1        0.1562
     16 C          15.8166   42.8729    6.6467 C.3     1  UNL1        0.0768
     17 C          16.3513   42.3286    7.9600 C.3     1  UNL1        0.0091
     18 C          17.4692   43.2600    8.3975 C.3     1  UNL1        0.0005
     19 C          17.7280   44.1994    7.2386 C.3     1  UNL1        0.0005
     20 C          16.4357   44.2414    6.4577 C.3     1  UNL1        0.0091
     21 C           8.6354   41.2006   11.4658 C.3     1  UNL1        0.0989
     22 C           7.2950   41.3436   10.8257 C.2     1  UNL1       -0.0088
     23 C           6.1835   41.2690   11.5520 C.2     1  UNL1       -0.0032
     24 C           4.8423   41.3951   10.9656 C.ar    1  UNL1       -0.0003
     25 C           3.7615   41.9136   11.6978 C.ar    1  UNL1       -0.0000
     26 C           2.4989   42.0223   11.1077 C.ar    1  UNL1       -0.0000
     27 C           2.3091   41.6149    9.7843 C.ar    1  UNL1       -0.0000
     28 C           3.3818   41.0988    9.0512 C.ar    1  UNL1       -0.0000
     29 C           4.6450   40.9898    9.6410 C.ar    1  UNL1       -0.0000
@<TRIPOS>BOND
     1    13    14   am
     2     8     9   ar
     3     1    11    1
     4     1     2    1
     5     2     3    1
     6     3     6    1
     7    21     6    1
     8    21    22    1
     9    23    24    1
    10    25    26   ar
    11    27    28   ar
    12    29    24   ar
    13     4     6    1
    14     4     5    1
    15     5     1    1
    16    16    13    1
    17    16    17    1
    18    17    18    1
    19    18    19    1
    20    19    20    1
    21    20    16    1
    22    14     7    1
    23    11    10   ar
    24    11     7   ar
    25    13    12    2
    26     7     8   ar
    27     9    10   ar
    28    22    23    2
    29    24    25   ar
    30    26    27   ar
    31    28    29   ar
    32    14    15    1
@<TRIPOS>MOLECULE
MolPort-005-100-458 12467958 CHEMBL1308785 CSSS00159514878 PubChem-24819002 ZINC000012467958
 29 32 0 0 0
SMALL
GASTEIGER

@<TRIPOS>ATOM
      1 C          11.8508   39.5751   10.7538 C.3     1  UNL1        0.1093
      2 C          10.5046   40.0904   10.2254 C.3     1  UNL1        0.0418
      3 C          10.5502   40.5562    8.7582 C.3     1  UNL1        0.0744
      4 C          12.7791   41.2867    9.0988 C.3     1  UNL1        0.0744
      5 C          13.0383   40.4734   10.3691 C.3     1  UNL1        0.0418
      6 N          11.9032   40.5425    8.1998 N.3     1  UNL1       -0.2688
      7 C          13.2710   37.6079   10.1674 C.ar    1  UNL1        0.1325
      8 C          13.0986   36.2809    9.8200 C.ar    1  UNL1        0.0565
      9 C          11.7168   36.1268    9.8133 C.ar    1  UNL1        0.1230
     10 N          11.1267   37.2964   10.1384 N.ar    1  UNL1       -0.1666
     11 N          12.0771   38.1903   10.3451 N.ar    1  UNL1       -0.2394
     12 O          15.3375   37.0443   12.1427 O.2     1  UNL1       -0.2748
     13 C          15.5091   37.9876   11.3224 C.2     1  UNL1        0.2267
     14 N          14.5198   38.2916   10.3336 N.am    1  UNL1       -0.2695
     15 H          14.7134   39.0330    9.7154 H       1  UNL1        0.1562
     16 C          16.7601   38.8028   11.3674 C.3     1  UNL1        0.0768
     17 C          16.7689   39.8607   10.2776 C.3     1  UNL1        0.0091
     18 C          18.1212   39.7709    9.5907 C.3     1  UNL1        0.0005
     19 C          18.9662   38.8278   10.4209 C.3     1  UNL1        0.0005
     20 C          17.9837   37.9391   11.1463 C.3     1  UNL1        0.0091
     21 C          11.8502   41.2667    6.9398 C.3     1  UNL1        0.0989
     22 C          13.2165   41.7212    6.5480 C.2     1  UNL1       -0.0088
     23 C          13.9546   42.4509    7.3794 C.2     1  UNL1       -0.0032
     24 C          15.3008   42.9282    7.0348 C.ar    1  UNL1       -0.0003
     25 C          16.4258   42.5829    7.8016 C.ar    1  UNL1       -0.0000
     26 C          17.6929   43.0523    7.4435 C.ar    1  UNL1       -0.0000
     27 C          17.8433   43.8679    6.3184 C.ar    1  UNL1       -0.0000
     28 C          16.7266   44.2138    5.5517 C.ar    1  UNL1       -0.0000
     29 C          15.4589   43.7445    5.9095 C.ar    1  UNL1       -0.0000
@<TRIPOS>BOND
     1    13    14   am
     2     8     9   ar
     3     1    11    1
     4     1     2    1
     5     2     3    1
     6     3     6    1
     7    21     6    1
     8    21    22    1
     9    23    24    1
    10    25    26   ar
    11    27    28   ar
    12    29    24   ar
    13     4     6    1
    14     4     5    1
    15     5     1    1
    16    16    13    1
    17    16    17    1
    18    17    18    1
    19    18    19    1
    20    19    20    1
    21    20    16    1
    22    14     7    1
    23    11    10   ar
    24    11     7   ar
    25    13    12    2
    26     7     8   ar
    27     9    10   ar
    28    22    23    2
    29    24    25   ar
    30    26    27   ar
    31    28    29   ar
    32    14    15    1
@<TRIPOS>MOLECULE
MolPort-005-100-458 12467958 CHEMBL1308785 CSSS00159514878 PubChem-24819002 ZINC000012467958
 29 32 0 0 0
SMALL
GASTEIGER

@<TRIPOS>ATOM
      1 C           9.9236   41.0992    9.0915 C.3     1  UNL1        0.1093
      2 C          10.1709   39.6149    8.7871 C.3     1  UNL1        0.0418
      3 C          11.5496   39.1073    9.2495 C.3     1  UNL1        0.0744
      4 C          12.4548   41.2452    8.7725 C.3     1  UNL1        0.0744
      5 C          11.1227   41.9981    8.7462 C.3     1  UNL1        0.0418
      6 N          12.4049   40.1772    9.7655 N.3     1  UNL1       -0.2688
      7 C           8.4396   41.9922   10.8891 C.ar    1  UNL1        0.1325
      8 C           8.3275   41.9138   12.2648 C.ar    1  UNL1        0.0565
      9 C           9.3974   41.1039   12.6294 C.ar    1  UNL1        0.1230
     10 N          10.0860   40.7364   11.5282 N.ar    1  UNL1       -0.1666
     11 N           9.5014   41.2851   10.4783 N.ar    1  UNL1       -0.2394
     12 O           8.9356   44.5673    9.6192 O.2     1  UNL1       -0.2748
     13 C           7.8454   43.9711    9.3998 C.2     1  UNL1        0.2267
     14 N           7.5672   42.7019   10.0004 N.am    1  UNL1       -0.2695
     15 H           6.7038   42.2809    9.7850 H       1  UNL1        0.1562
     16 C           6.8241   44.5828    8.4974 C.3     1  UNL1        0.0768
     17 C           5.4189   44.3810    9.0374 C.3     1  UNL1        0.0091
     18 C           4.5758   43.8660    7.8830 C.3     1  UNL1        0.0005
     19 C           5.4287   43.9851    6.6376 C.3     1  UNL1        0.0005
     20 C           6.8584   43.9483    7.1233 C.3     1  UNL1        0.0091
     21 C          13.7459   39.6278    9.8868 C.3     1  UNL1        0.0989
     22 C          14.7623   40.6714    9.5633 C.2     1  UNL1       -0.0088
     23 C          14.8890   41.1355    8.3235 C.2     1  UNL1       -0.0032
     24 C          15.8801   42.1558    7.9555 C.ar    1  UNL1       -0.0003
     25 C          17.1251   42.2429    8.6001 C.ar    1  UNL1       -0.0000
     26 C          18.0461   43.2245    8.2228 C.ar    1  UNL1       -0.0000
     27 C          17.7294   44.1232    7.2002 C.ar    1  UNL1       -0.0000
     28 C          16.4919   44.0401    6.5552 C.ar    1  UNL1       -0.0000
     29 C          15.5702   43.0585    6.9323 C.ar    1  UNL1       -0.0000
@<TRIPOS>BOND
     1    13    14   am
     2     8     9   ar
     3     1    11    1
     4     1     2    1
     5     2     3    1
     6     3     6    1
     7    21     6    1
     8    21    22    1
     9    23    24    1
    10    25    26   ar
    11    27    28   ar
    12    29    24   ar
    13     4     6    1
    14     4     5    1
    15     5     1    1
    16    16    13    1
    17    16    17    1
    18    17    18    1
    19    18    19    1
    20    19    20    1
    21    20    16    1
    22    14     7    1
    23    11    10   ar
    24    11     7   ar
    25    13    12    2
    26     7     8   ar
    27     9    10   ar
    28    22    23    2
    29    24    25   ar
    30    26    27   ar
    31    28    29   ar
    32    14    15    1
@<TRIPOS>MOLECULE
MolPort-005-100-458 12467958 CHEMBL1308785 CSSS00159514878 PubChem-24819002 ZINC000012467958
 29 32 0 0 0
SMALL
GASTEIGER

@<TRIPOS>ATOM
      1 C           8.9083   40.9754    8.5493 C.3     1  UNL1        0.1093
      2 C          10.1458   40.0686    8.6082 C.3     1  UNL1        0.0418
      3 C          11.2831   40.5077    7.6670 C.3     1  UNL1        0.0744
      4 C           9.6576   41.2817    6.1254 C.3     1  UNL1        0.0744
      5 C           8.4917   41.3419    7.1150 C.3     1  UNL1        0.0418
      6 N          10.9042   41.6256    6.8014 N.3     1  UNL1       -0.2688
      7 C           8.1546   42.7702   10.1117 C.ar    1  UNL1        0.1325
      8 C           8.7027   43.8470   10.7835 C.ar    1  UNL1        0.0565
      9 C          10.0352   43.8297   10.3868 C.ar    1  UNL1        0.1230
     10 N          10.2436   42.8026    9.5361 N.ar    1  UNL1       -0.1666
     11 N           9.0959   42.1697    9.3704 N.ar    1  UNL1       -0.2394
     12 O           6.9869   40.9738   12.0863 O.2     1  UNL1       -0.2748
     13 C           6.2587   41.4345   11.1646 C.2     1  UNL1        0.2267
     14 N           6.7940   42.3243   10.1794 N.am    1  UNL1       -0.2695
     15 H           6.1755   42.6582    9.4901 H       1  UNL1        0.1562
     16 C           4.8142   41.0606   11.0918 C.3     1  UNL1        0.0768
     17 C           4.3871   40.7845    9.6606 C.3     1  UNL1        0.0091
     18 C           3.0994   41.5575    9.4309 C.3     1  UNL1        0.0005
     19 C           2.6679   42.0902   10.7810 C.3     1  UNL1        0.0005
     20 C           3.9330   42.1812   11.6012 C.3     1  UNL1        0.0091
     21 C          11.9367   41.7442    5.7842 C.3     1  UNL1        0.0989
     22 C          13.2861   41.7796    6.4204 C.2     1  UNL1       -0.0088
     23 C          13.9596   42.9217    6.5229 C.2     1  UNL1       -0.0032
     24 C          15.2936   43.0045    7.1331 C.ar    1  UNL1       -0.0003
     25 C          16.1745   44.0594    6.8430 C.ar    1  UNL1       -0.0000
     26 C          17.4358   44.1087    7.4438 C.ar    1  UNL1       -0.0000
     27 C          17.8235   43.1062    8.3372 C.ar    1  UNL1       -0.0000
     28 C          16.9500   42.0546    8.6296 C.ar    1  UNL1       -0.0000
     29 C          15.6882   42.0047    8.0289 C.ar    1  UNL1       -0.0000
@<TRIPOS>BOND
     1    13    14   am
     2     8     9   ar
     3     1    11    1
     4     1     2    1
     5     2     3    1
     6     3     6    1
     7    21     6    1
     8    21    22    1
     9    23    24    1
    10    25    26   ar
    11    27    28   ar
    12    29    24   ar
    13     4     6    1
    14     4     5    1
    15     5     1    1
    16    16    13    1
    17    16    17    1
    18    17    18    1
    19    18    19    1
    20    19    20    1
    21    20    16    1
    22    14     7    1
    23    11    10   ar
    24    11     7   ar
    25    13    12    2
    26     7     8   ar
    27     9    10   ar
    28    22    23    2
    29    24    25   ar
    30    26    27   ar
    31    28    29   ar
    32    14    15    1
@<TRIPOS>MOLECULE
MolPort-005-100-458 12467958 CHEMBL1308785 CSSS00159514878 PubChem-24819002 ZINC000012467958
 29 32 0 0 0
SMALL
GASTEIGER

@<TRIPOS>ATOM
      1 C          10.9331   39.5993    9.8594 C.3     1  UNL1        0.1093
      2 C          11.8846   40.2562   10.8694 C.3     1  UNL1        0.0418
      3 C          13.3733   39.9713   10.5964 C.3     1  UNL1        0.0744
      4 C          12.7745   37.8294    9.7772 C.3     1  UNL1        0.0744
      5 C          11.2929   38.1368    9.5483 C.3     1  UNL1        0.0418
      6 N          13.5782   39.0167    9.5059 N.3     1  UNL1       -0.2688
      7 C           9.7080   40.8684    8.0933 C.ar    1  UNL1        0.1325
      8 C          10.0054   41.6093    6.9646 C.ar    1  UNL1        0.0565
      9 C          11.3922   41.5408    6.8907 C.ar    1  UNL1        0.1230
     10 N          11.8669   40.8038    7.9170 N.ar    1  UNL1       -0.1666
     11 N          10.8376   40.3951    8.6373 N.ar    1  UNL1       -0.2394
     12 O           7.7639   42.8626    8.9499 O.2     1  UNL1       -0.2748
     13 C           7.4780   41.6380    9.0535 C.2     1  UNL1        0.2267
     14 N           8.4041   40.6287    8.6381 N.am    1  UNL1       -0.2695
     15 H           8.1215   39.6906    8.7348 H       1  UNL1        0.1562
     16 C           6.1555   41.2208    9.6089 C.3     1  UNL1        0.0768
     17 C           5.0222   42.0302    9.0028 C.3     1  UNL1        0.0091
     18 C           4.1568   42.5054   10.1577 C.3     1  UNL1        0.0005
     19 C           4.6560   41.7899   11.3953 C.3     1  UNL1        0.0005
     20 C           6.0969   41.4414   11.1055 C.3     1  UNL1        0.0091
     21 C          14.9764   38.6188    9.5468 C.3     1  UNL1        0.0989
     22 C          15.0919   37.1323    9.4852 C.2     1  UNL1       -0.0088
     23 C          16.0504   36.5541    8.7672 C.2     1  UNL1       -0.0032
     24 C          16.1986   35.0956    8.6695 C.ar    1  UNL1       -0.0003
     25 C          17.4612   34.4800    8.6637 C.ar    1  UNL1       -0.0000
     26 C          17.5658   33.0890    8.5723 C.ar    1  UNL1       -0.0000
     27 C          16.4112   32.3060    8.4870 C.ar    1  UNL1       -0.0000
     28 C          15.1523   32.9139    8.4930 C.ar    1  UNL1       -0.0000
     29 C          15.0471   34.3053    8.5843 C.ar    1  UNL1       -0.0000
@<TRIPOS>BOND
     1    13    14   am
     2     8     9   ar
     3     1    11    1
     4     1     2    1
     5     2     3    1
     6     3     6    1
     7    21     6    1
     8    21    22    1
     9    23    24    1
    10    25    26   ar
    11    27    28   ar
    12    29    24   ar
    13     4     6    1
    14     4     5    1
    15     5     1    1
    16    16    13    1
    17    16    17    1
    18    17    18    1
    19    18    19    1
    20    19    20    1
    21    20    16    1
    22    14     7    1
    23    11    10   ar
    24    11     7   ar
    25    13    12    2
    26     7     8   ar
    27     9    10   ar
    28    22    23    2
    29    24    25   ar
    30    26    27   ar
    31    28    29   ar
    32    14    15    1
@<TRIPOS>MOLECULE
MolPort-005-100-458 12467958 CHEMBL1308785 CSSS00159514878 PubChem-24819002 ZINC000012467958
 29 32 0 0 0
SMALL
GASTEIGER

@<TRIPOS>ATOM
      1 C          12.0436   39.9590    8.6258 C.3     1  UNL1        0.1093
      2 C          10.5423   39.7337    8.3966 C.3     1  UNL1        0.0418
      3 C           9.6402   40.6576    9.2360 C.3     1  UNL1        0.0744
      4 C          11.2528   40.5928   10.9717 C.3     1  UNL1        0.0744
      5 C          12.4172   40.0969   10.1112 C.3     1  UNL1        0.0418
      6 N          10.3937   41.4746   10.1885 N.3     1  UNL1       -0.2688
      7 C          12.2566   41.3402    6.5576 C.ar    1  UNL1        0.1325
      8 C          12.8486   42.5276    6.1693 C.ar    1  UNL1        0.0565
      9 C          13.4790   42.9671    7.3281 C.ar    1  UNL1        0.1230
     10 N          13.2628   42.0849    8.3265 N.ar    1  UNL1       -0.1666
     11 N          12.5258   41.0984    7.8480 N.ar    1  UNL1       -0.2394
     12 O           9.6110   41.8934    5.4692 O.2     1  UNL1       -0.2748
     13 C          10.1580   40.7825    5.2264 C.2     1  UNL1        0.2267
     14 N          11.4591   40.4758    5.7382 N.am    1  UNL1       -0.2695
     15 H          11.8382   39.5969    5.5080 H       1  UNL1        0.1562
     16 C           9.4529   39.7662    4.3888 C.3     1  UNL1        0.0768
     17 C           9.1568   38.5060    5.1830 C.3     1  UNL1        0.0091
     18 C           9.6094   37.3335    4.3291 C.3     1  UNL1        0.0005
     19 C           9.9526   37.8978    2.9666 C.3     1  UNL1        0.0005
     20 C          10.3017   39.3475    3.2072 C.3     1  UNL1        0.0091
     21 C           9.4262   42.0665   11.0988 C.3     1  UNL1        0.0989
     22 C           8.4182   42.8596   10.3360 C.2     1  UNL1       -0.0088
     23 C           7.2522   42.3226    9.9888 C.2     1  UNL1       -0.0032
     24 C           6.2327   43.0609    9.2309 C.ar    1  UNL1       -0.0003
     25 C           4.8833   43.0679    9.6206 C.ar    1  UNL1       -0.0000
     26 C           3.9397   43.7836    8.8779 C.ar    1  UNL1       -0.0000
     27 C           4.3384   44.4960    7.7434 C.ar    1  UNL1       -0.0000
     28 C           5.6804   44.4926    7.3518 C.ar    1  UNL1       -0.0000
     29 C           6.6247   43.7768    8.0944 C.ar    1  UNL1       -0.0000
@<TRIPOS>BOND
     1    13    14   am
     2     8     9   ar
     3     1    11    1
     4     1     2    1
     5     2     3    1
     6     3     6    1
     7    21     6    1
     8    21    22    1
     9    23    24    1
    10    25    26   ar
    11    27    28   ar
    12    29    24   ar
    13     4     6    1
    14     4     5    1
    15     5     1    1
    16    16    13    1
    17    16    17    1
    18    17    18    1
    19    18    19    1
    20    19    20    1
    21    20    16    1
    22    14     7    1
    23    11    10   ar
    24    11     7   ar
    25    13    12    2
    26     7     8   ar
    27     9    10   ar
    28    22    23    2
    29    24    25   ar
    30    26    27   ar
    31    28    29   ar
    32    14    15    1
@<TRIPOS>MOLECULE
MolPort-005-100-458 12467958 CHEMBL1308785 CSSS00159514878 PubChem-24819002 ZINC000012467958
 29 32 0 0 0
SMALL
GASTEIGER

@<TRIPOS>ATOM
      1 C          11.7000   40.4065    6.8478 C.3     1  UNL1        0.1093
      2 C          10.3315   41.0373    6.5540 C.3     1  UNL1        0.0418
      3 C           9.6918   41.7290    7.7723 C.3     1  UNL1        0.0744
      4 C          10.6881   40.0980    9.1740 C.3     1  UNL1        0.0744
      5 C          11.7335   39.6150    8.1660 C.3     1  UNL1        0.0418
      6 N          10.4554   41.5285    9.0049 N.3     1  UNL1       -0.2688
      7 C          13.8536   41.4360    7.5775 C.ar    1  UNL1        0.1325
      8 C          14.6510   42.5103    7.2293 C.ar    1  UNL1        0.0565
      9 C          13.9472   43.1106    6.1912 C.ar    1  UNL1        0.1230
     10 N          12.8105   42.4224    5.9543 N.ar    1  UNL1       -0.1666
     11 N          12.7593   41.4123    6.8041 N.ar    1  UNL1       -0.2394
     12 O          16.3749   41.0097    8.9743 O.2     1  UNL1       -0.2748
     13 C          15.3826   40.2833    9.2569 C.2     1  UNL1        0.2267
     14 N          14.1257   40.4658    8.5969 N.am    1  UNL1       -0.2695
     15 H          13.3855   39.8750    8.8659 H       1  UNL1        0.1562
     16 C          15.5044   39.2186   10.2977 C.3     1  UNL1        0.0768
     17 C          15.5222   37.8348    9.6720 C.3     1  UNL1        0.0091
     18 C          14.5272   36.9897   10.4495 C.3     1  UNL1        0.0005
     19 C          14.1085   37.8104   11.6510 C.3     1  UNL1        0.0005
     20 C          14.3300   39.2503   11.2524 C.3     1  UNL1        0.0091
     21 C           9.6109   41.9686   10.1040 C.3     1  UNL1        0.0989
     22 C           8.1735   41.7436    9.7724 C.2     1  UNL1       -0.0088
     23 C           7.2210   42.0091   10.6618 C.2     1  UNL1       -0.0032
     24 C           5.7941   41.7959   10.3841 C.ar    1  UNL1       -0.0003
     25 C           5.0626   40.7769   11.0163 C.ar    1  UNL1       -0.0000
     26 C           3.7052   40.6038   10.7308 C.ar    1  UNL1       -0.0000
     27 C           3.0713   41.4469    9.8137 C.ar    1  UNL1       -0.0000
     28 C           3.7949   42.4628    9.1823 C.ar    1  UNL1       -0.0000
     29 C           5.1528   42.6364    9.4676 C.ar    1  UNL1       -0.0000
@<TRIPOS>BOND
     1    13    14   am
     2     8     9   ar
     3     1    11    1
     4     1     2    1
     5     2     3    1
     6     3     6    1
     7    21     6    1
     8    21    22    1
     9    23    24    1
    10    25    26   ar
    11    27    28   ar
    12    29    24   ar
    13     4     6    1
    14     4     5    1
    15     5     1    1
    16    16    13    1
    17    16    17    1
    18    17    18    1
    19    18    19    1
    20    19    20    1
    21    20    16    1
    22    14     7    1
    23    11    10   ar
    24    11     7   ar
    25    13    12    2
    26     7     8   ar
    27     9    10   ar
    28    22    23    2
    29    24    25   ar
    30    26    27   ar
    31    28    29   ar
    32    14    15    1
@<TRIPOS>MOLECULE
MolPort-005-100-458 12467958 CHEMBL1308785 CSSS00159514878 PubChem-24819002 ZINC000012467958
 29 32 0 0 0
SMALL
GASTEIGER

@<TRIPOS>ATOM
      1 C          12.2744   39.6757    8.8197 C.3     1  UNL1        0.1093
      2 C          10.7693   39.5259    8.5564 C.3     1  UNL1        0.0418
      3 C           9.9017   40.5516    9.3095 C.3     1  UNL1        0.0744
      4 C          11.4574   40.4988   11.0969 C.3     1  UNL1        0.0744
      5 C          12.6134   39.8827   10.3055 C.3     1  UNL1        0.0418
      6 N          10.6763   41.3798   10.2351 N.3     1  UNL1       -0.2688
      7 C          12.1869   41.4665    7.0830 C.ar    1  UNL1        0.1325
      8 C          13.0399   42.3983    6.5214 C.ar    1  UNL1        0.0565
      9 C          14.2465   42.1630    7.1712 C.ar    1  UNL1        0.1230
     10 N          14.0979   41.1547    8.0562 N.ar    1  UNL1       -0.1666
     11 N          12.8471   40.7344    7.9910 N.ar    1  UNL1       -0.2394
     12 O          11.0512   40.4220    4.6114 O.2     1  UNL1       -0.2748
     13 C          10.2786   40.7737    5.5450 C.2     1  UNL1        0.2267
     14 N          10.7984   41.2860    6.7763 N.am    1  UNL1       -0.2695
     15 H          10.1473   41.5355    7.4713 H       1  UNL1        0.1562
     16 C           8.7988   40.6528    5.3800 C.3     1  UNL1        0.0768
     17 C           8.0606   41.5977    6.3123 C.3     1  UNL1        0.0091
     18 C           6.9781   40.7805    6.9970 C.3     1  UNL1        0.0005
     19 C           6.9453   39.4363    6.3008 C.3     1  UNL1        0.0005
     20 C           8.3241   39.2541    5.7115 C.3     1  UNL1        0.0091
     21 C           9.7213   42.0831   11.0767 C.3     1  UNL1        0.0989
     22 C           8.3559   42.0117   10.4786 C.2     1  UNL1       -0.0088
     23 C           7.2959   41.7414   11.2348 C.2     1  UNL1       -0.0032
     24 C           5.9343   41.6524   10.6899 C.ar    1  UNL1       -0.0003
     25 C           5.5057   42.4742    9.6345 C.ar    1  UNL1       -0.0000
     26 C           4.2038   42.3612    9.1382 C.ar    1  UNL1       -0.0000
     27 C           3.3238   41.4272    9.6923 C.ar    1  UNL1       -0.0000
     28 C           3.7458   40.6067   10.7425 C.ar    1  UNL1       -0.0000
     29 C           5.0481   40.7194   11.2393 C.ar    1  UNL1       -0.0000
@<TRIPOS>BOND
     1    13    14   am
     2     8     9   ar
     3     1    11    1
     4     1     2    1
     5     2     3    1
     6     3     6    1
     7    21     6    1
     8    21    22    1
     9    23    24    1
    10    25    26   ar
    11    27    28   ar
    12    29    24   ar
    13     4     6    1
    14     4     5    1
    15     5     1    1
    16    16    13    1
    17    16    17    1
    18    17    18    1
    19    18    19    1
    20    19    20    1
    21    20    16    1
    22    14     7    1
    23    11    10   ar
    24    11     7   ar
    25    13    12    2
    26     7     8   ar
    27     9    10   ar
    28    22    23    2
    29    24    25   ar
    30    26    27   ar
    31    28    29   ar
    32    14    15    1
@<TRIPOS>MOLECULE
MolPort-005-100-458 12467958 CHEMBL1308785 CSSS00159514878 PubChem-24819002 ZINC000012467958
 29 32 0 0 0
SMALL
GASTEIGER

@<TRIPOS>ATOM
      1 C          11.0992   39.9670    7.4839 C.3     1  UNL1        0.1093
      2 C          10.8051   40.4472    6.0556 C.3     1  UNL1        0.0418
      3 C           9.3059   40.4690    5.7038 C.3     1  UNL1        0.0744
      4 C           8.9901   38.5771    7.0960 C.3     1  UNL1        0.0744
      5 C          10.2957   38.7176    7.8821 C.3     1  UNL1        0.0418
      6 N           8.4669   39.8965    6.7577 N.3     1  UNL1       -0.2688
      7 C          11.8658   41.8783    8.8944 C.ar    1  UNL1        0.1325
      8 C          11.3160   42.8001    9.7657 C.ar    1  UNL1        0.0565
      9 C           9.9694   42.4545    9.7924 C.ar    1  UNL1        0.1230
     10 N           9.7551   41.3956    8.9833 N.ar    1  UNL1       -0.1666
     11 N          10.9122   41.0492    8.4480 N.ar    1  UNL1       -0.2394
     12 O          13.2097   43.4836    6.8679 O.2     1  UNL1       -0.2748
     13 C          13.8630   42.6001    7.4882 C.2     1  UNL1        0.2267
     14 N          13.2398   41.7954    8.4946 N.am    1  UNL1       -0.2695
     15 H          13.8024   41.1286    8.9508 H       1  UNL1        0.1562
     16 C          15.3095   42.3844    7.1837 C.3     1  UNL1        0.0768
     17 C          16.0561   41.8570    8.3966 C.3     1  UNL1        0.0091
     18 C          17.3102   42.7025    8.5409 C.3     1  UNL1        0.0005
     19 C          17.4007   43.5582    7.2950 C.3     1  UNL1        0.0005
     20 C          15.9838   43.6803    6.7863 C.3     1  UNL1        0.0091
     21 C           7.1407   39.7105    6.1908 C.3     1  UNL1        0.0989
     22 C           6.1167   40.3850    7.0412 C.2     1  UNL1       -0.0088
     23 C           6.3615   40.6454    8.3222 C.2     1  UNL1       -0.0032
     24 C           5.3819   41.2994    9.2004 C.ar    1  UNL1       -0.0003
     25 C           4.3491   42.1014    8.6872 C.ar    1  UNL1       -0.0000
     26 C           3.4321   42.7067    9.5515 C.ar    1  UNL1       -0.0000
     27 C           3.5410   42.5141   10.9315 C.ar    1  UNL1       -0.0000
     28 C           4.5668   41.7163   11.4471 C.ar    1  UNL1       -0.0000
     29 C           5.4843   41.1106   10.5830 C.ar    1  UNL1       -0.0000
@<TRIPOS>BOND
     1    13    14   am
     2     8     9   ar
     3     1    11    1
     4     1     2    1
     5     2     3    1
     6     3     6    1
     7    21     6    1
     8    21    22    1
     9    23    24    1
    10    25    26   ar
    11    27    28   ar
    12    29    24   ar
    13     4     6    1
    14     4     5    1
    15     5     1    1
    16    16    13    1
    17    16    17    1
    18    17    18    1
    19    18    19    1
    20    19    20    1
    21    20    16    1
    22    14     7    1
    23    11    10   ar
    24    11     7   ar
    25    13    12    2
    26     7     8   ar
    27     9    10   ar
    28    22    23    2
    29    24    25   ar
    30    26    27   ar
    31    28    29   ar
    32    14    15    1
@<TRIPOS>MOLECULE
MolPort-005-100-458 12467958 CHEMBL1308785 CSSS00159514878 PubChem-24819002 ZINC000012467958
 29 32 0 0 0
SMALL
GASTEIGER

@<TRIPOS>ATOM
      1 C          12.1137   40.0710    8.5353 C.3     1  UNL1        0.1093
      2 C          10.6689   40.1753    8.0267 C.3     1  UNL1        0.0418
      3 C           9.8554   41.3005    8.6930 C.3     1  UNL1        0.0744
      4 C          11.0637   40.9350   10.6989 C.3     1  UNL1        0.0744
      5 C          12.2273   40.1685   10.0659 C.3     1  UNL1        0.0418
      6 N          10.5821   41.9601    9.7790 N.3     1  UNL1       -0.2688
      7 C          14.2682   41.2678    8.1399 C.ar    1  UNL1        0.1325
      8 C          14.7646   42.2412    7.2930 C.ar    1  UNL1        0.0565
      9 C          13.6666   42.5752    6.5078 C.ar    1  UNL1        0.1230
     10 N          12.5996   41.8371    6.8799 N.ar    1  UNL1       -0.1666
     11 N          12.9724   41.0517    7.8746 N.ar    1  UNL1       -0.2394
     12 O          17.1298   41.4131    8.6690 O.2     1  UNL1       -0.2748
     13 C          16.4088   40.6587    9.3784 C.2     1  UNL1        0.2267
     14 N          14.9984   40.5646    9.1533 N.am    1  UNL1       -0.2695
     15 H          14.4866   39.9663    9.7443 H       1  UNL1        0.1562
     16 C          17.0206   39.8519   10.4767 C.3     1  UNL1        0.0768
     17 C          18.3233   39.2109   10.0307 C.3     1  UNL1        0.0091
     18 C          18.2552   37.7494   10.4406 C.3     1  UNL1        0.0005
     19 C          17.0266   37.6016   11.3131 C.3     1  UNL1        0.0005
     20 C          16.1040   38.7252   10.9034 C.3     1  UNL1        0.0091
     21 C           9.6192   42.7784   10.4989 C.3     1  UNL1        0.0989
     22 C           8.2288   42.4023   10.1088 C.2     1  UNL1       -0.0088
     23 C           7.3568   41.9829   11.0211 C.2     1  UNL1       -0.0032
     24 C           5.9806   41.5940   10.6839 C.ar    1  UNL1       -0.0003
     25 C           5.2391   40.7214   11.4973 C.ar    1  UNL1       -0.0000
     26 C           3.9307   40.3744   11.1480 C.ar    1  UNL1       -0.0000
     27 C           3.3562   40.8970    9.9860 C.ar    1  UNL1       -0.0000
     28 C           4.0899   41.7664    9.1735 C.ar    1  UNL1       -0.0000
     29 C           5.3988   42.1138    9.5224 C.ar    1  UNL1       -0.0000
@<TRIPOS>BOND
     1    13    14   am
     2     8     9   ar
     3     1    11    1
     4     1     2    1
     5     2     3    1
     6     3     6    1
     7    21     6    1
     8    21    22    1
     9    23    24    1
    10    25    26   ar
    11    27    28   ar
    12    29    24   ar
    13     4     6    1
    14     4     5    1
    15     5     1    1
    16    16    13    1
    17    16    17    1
    18    17    18    1
    19    18    19    1
    20    19    20    1
    21    20    16    1
    22    14     7    1
    23    11    10   ar
    24    11     7   ar
    25    13    12    2
    26     7     8   ar
    27     9    10   ar
    28    22    23    2
    29    24    25   ar
    30    26    27   ar
    31    28    29   ar
    32    14    15    1
