@<TRIPOS>MOLECULE
MolPort-046-971-536 MCULE-6973823244 PubChem-110111462
 28 31 0 0 0
SMALL
GASTEIGER

@<TRIPOS>ATOM
      1 C          11.7233   41.1085    7.0759 C.ar    1  UNL1        0.1329
      2 C           9.4952   40.4038    7.5295 C.ar    1  UNL1        0.1000
      3 C           9.9635   39.2168    8.0972 C.ar    1  UNL1        0.0165
      4 C          11.3438   38.9723    8.1376 C.ar    1  UNL1       -0.0168
      5 C          12.2257   39.9337    7.6401 C.ar    1  UNL1        0.0302
      6 N          10.3754   41.3159    7.0360 N.ar    1  UNL1       -0.2291
      7 C          11.9032   37.7390    8.7737 C.3     1  UNL1        0.0385
      8 C          11.2320   37.3792   10.0962 C.3     1  UNL1        0.0072
      9 C          11.7644   36.0469   10.6171 C.3     1  UNL1        0.0177
     10 C          13.2065   35.7738   10.1692 C.3     1  UNL1        0.0725
     11 C          13.4304   37.8296    8.9245 C.3     1  UNL1        0.0768
     12 N          13.9567   37.0255   10.0373 N.3     1  UNL1       -0.2661
     13 C          15.3152   36.6699    9.6704 C.3     1  UNL1        0.1371
     14 C          16.2712   37.7294   10.1120 C.ar    1  UNL1        0.1368
     15 C          17.9661   39.0216   10.1451 C.ar    1  UNL1        0.1189
     16 C          17.1473   39.3520   11.2147 C.ar    1  UNL1        0.0978
     17 C          14.9714   38.5306   12.1061 C.3     1  UNL1        0.1317
     18 N          17.4107   38.0057    9.4523 N.ar    1  UNL1       -0.2279
     19 N          16.0905   38.5273   11.1773 N.ar    1  UNL1       -0.3106
     20 N          12.6415   42.0960    6.5964 N.pl3   1  UNL1       -0.2834
     21 H          12.3113   42.7125    5.9036 H       1  UNL1        0.1550
     22 C          16.9434   44.3989    6.1877 C.3     1  UNL1        0.0521
     23 C          16.0935   43.3783    6.8498 C.ar    1  UNL1        0.0608
     24 C          13.9961   42.2723    7.0293 C.ar    1  UNL1        0.1328
     25 C          14.4935   41.4654    8.0562 C.ar    1  UNL1        0.0344
     26 C          15.8155   41.6245    8.4768 C.ar    1  UNL1        0.0041
     27 C          16.6263   42.5827    7.8670 C.ar    1  UNL1        0.0148
     28 N          14.8046   43.2047    6.4522 N.ar    1  UNL1       -0.2349
@<TRIPOS>BOND
     1    22    23    1
     2    24    28   ar
     3    24    20    1
     4    25    26   ar
     5    27    23   ar
     6     2     6   ar
     7     3     4   ar
     8     5     1   ar
     9     7     4    1
    10     7     8    1
    11     8     9    1
    12     9    10    1
    13    10    12    1
    14    11    12    1
    15    11     7    1
    16    13    12    1
    17    13    14    1
    18    15    18   ar
    19    16    19   ar
    20    17    19    1
    21    20     1    1
    22    19    14   ar
    23    23    28   ar
    24    24    25   ar
    25    26    27   ar
    26     1     6   ar
    27     2     3   ar
    28     4     5   ar
    29    14    18   ar
    30    15    16   ar
    31    20    21    1
@<TRIPOS>MOLECULE
MolPort-046-971-536 MCULE-6973823244 PubChem-110111462
 28 31 0 0 0
SMALL
GASTEIGER

@<TRIPOS>ATOM
      1 C          12.1339   41.4405    6.6611 C.ar    1  UNL1        0.1329
      2 C          10.0541   40.6700    7.5257 C.ar    1  UNL1        0.1000
      3 C          10.7148   39.8739    8.4639 C.ar    1  UNL1        0.0165
      4 C          12.1168   39.8558    8.4840 C.ar    1  UNL1       -0.0168
      5 C          12.8262   40.6588    7.5887 C.ar    1  UNL1        0.0302
      6 N          10.7696   41.4294    6.6530 N.ar    1  UNL1       -0.2291
      7 C          12.8762   39.0566    9.4956 C.3     1  UNL1        0.0385
      8 C          13.2024   39.8366   10.7661 C.3     1  UNL1        0.0072
      9 C          13.8601   38.9226   11.7965 C.3     1  UNL1        0.0177
     10 C          14.6461   37.7750   11.1486 C.3     1  UNL1        0.0725
     11 C          14.1378   38.4288    8.8815 C.3     1  UNL1        0.0768
     12 N          15.2083   38.1906    9.8609 N.3     1  UNL1       -0.2661
     13 C          15.9781   37.0703    9.3520 C.3     1  UNL1        0.1371
     14 C          17.3383   37.0463    9.9693 C.ar    1  UNL1        0.1368
     15 C          19.1656   36.3074   10.7808 C.ar    1  UNL1        0.1189
     16 C          19.2267   37.6929   10.7643 C.ar    1  UNL1        0.0978
     17 C          17.7079   39.5294   10.0405 C.3     1  UNL1        0.1317
     18 N          17.9806   35.9048   10.2767 N.ar    1  UNL1       -0.2279
     19 N          18.0688   38.1369   10.2539 N.ar    1  UNL1       -0.3106
     20 N          12.8755   42.2792    5.7695 N.pl3   1  UNL1       -0.2834
     21 H          12.5426   42.3521    4.8458 H       1  UNL1        0.1550
     22 C          17.1264   42.6218    8.1753 C.3     1  UNL1        0.0521
     23 C          16.1253   43.2104    7.2514 C.ar    1  UNL1        0.0608
     24 C          14.0566   43.0228    6.0938 C.ar    1  UNL1        0.1328
     25 C          14.2319   44.2962    5.5454 C.ar    1  UNL1        0.0344
     26 C          15.3755   45.0310    5.8646 C.ar    1  UNL1        0.0041
     27 C          16.3284   44.4899    6.7287 C.ar    1  UNL1        0.0148
     28 N          15.0027   42.5128    6.9311 N.ar    1  UNL1       -0.2349
@<TRIPOS>BOND
     1    22    23    1
     2    24    28   ar
     3    24    20    1
     4    25    26   ar
     5    27    23   ar
     6     2     6   ar
     7     3     4   ar
     8     5     1   ar
     9     7     4    1
    10     7     8    1
    11     8     9    1
    12     9    10    1
    13    10    12    1
    14    11    12    1
    15    11     7    1
    16    13    12    1
    17    13    14    1
    18    15    18   ar
    19    16    19   ar
    20    17    19    1
    21    20     1    1
    22    19    14   ar
    23    23    28   ar
    24    24    25   ar
    25    26    27   ar
    26     1     6   ar
    27     2     3   ar
    28     4     5   ar
    29    14    18   ar
    30    15    16   ar
    31    20    21    1
@<TRIPOS>MOLECULE
MolPort-046-971-536 MCULE-6973823244 PubChem-110111462
 28 31 0 0 0
SMALL
GASTEIGER

@<TRIPOS>ATOM
      1 C          13.4711   40.9257    8.7005 C.ar    1  UNL1        0.1329
      2 C          12.5335   40.2129   10.7692 C.ar    1  UNL1        0.1000
      3 C          13.6962   39.5026   11.0759 C.ar    1  UNL1        0.0165
      4 C          14.7595   39.4975   10.1617 C.ar    1  UNL1       -0.0168
      5 C          14.6496   40.2291    8.9774 C.ar    1  UNL1        0.0302
      6 N          12.4458   40.9030    9.6004 N.ar    1  UNL1       -0.2291
      7 C          16.0447   38.7910   10.4577 C.3     1  UNL1        0.0385
      8 C          17.2698   39.6971   10.3739 C.3     1  UNL1        0.0072
      9 C          18.5211   38.9408   10.8121 C.3     1  UNL1        0.0177
     10 C          18.4237   37.4339   10.5393 C.3     1  UNL1        0.0725
     11 C          16.2106   37.5386    9.5819 C.3     1  UNL1        0.0768
     12 N          17.6148   37.1718    9.3461 N.3     1  UNL1       -0.2661
     13 C          17.6259   35.7363    9.1321 C.3     1  UNL1        0.1371
     14 C          17.1895   35.4109    7.7410 C.ar    1  UNL1        0.1368
     15 C          17.0819   35.4242    5.6121 C.ar    1  UNL1        0.1189
     16 C          16.1825   34.4809    6.0865 C.ar    1  UNL1        0.0978
     17 C          15.5041   33.6454    8.3326 C.3     1  UNL1        0.1317
     18 N          17.7157   36.0027    6.6533 N.ar    1  UNL1       -0.2279
     19 N          16.2637   34.4904    7.4250 N.ar    1  UNL1       -0.3106
     20 N          13.3855   41.6934    7.4958 N.pl3   1  UNL1       -0.2834
     21 H          12.5683   41.5878    6.9571 H       1  UNL1        0.1550
     22 C          17.7389   43.8802    7.9882 C.3     1  UNL1        0.0521
     23 C          16.4880   43.6738    7.2169 C.ar    1  UNL1        0.0608
     24 C          14.3767   42.6014    6.9993 C.ar    1  UNL1        0.1328
     25 C          14.1355   43.2873    5.8059 C.ar    1  UNL1        0.0344
     26 C          15.0924   44.1812    5.3209 C.ar    1  UNL1        0.0041
     27 C          16.2758   44.3832    6.0323 C.ar    1  UNL1        0.0148
     28 N          15.5416   42.8108    7.6743 N.ar    1  UNL1       -0.2349
@<TRIPOS>BOND
     1    22    23    1
     2    24    28   ar
     3    24    20    1
     4    25    26   ar
     5    27    23   ar
     6     2     6   ar
     7     3     4   ar
     8     5     1   ar
     9     7     4    1
    10     7     8    1
    11     8     9    1
    12     9    10    1
    13    10    12    1
    14    11    12    1
    15    11     7    1
    16    13    12    1
    17    13    14    1
    18    15    18   ar
    19    16    19   ar
    20    17    19    1
    21    20     1    1
    22    19    14   ar
    23    23    28   ar
    24    24    25   ar
    25    26    27   ar
    26     1     6   ar
    27     2     3   ar
    28     4     5   ar
    29    14    18   ar
    30    15    16   ar
    31    20    21    1
@<TRIPOS>MOLECULE
MolPort-046-971-536 MCULE-6973823244 PubChem-110111462
 28 31 0 0 0
SMALL
GASTEIGER

@<TRIPOS>ATOM
      1 C          12.0125   41.5217    7.0127 C.ar    1  UNL1        0.1329
      2 C           9.9078   41.2356    8.0875 C.ar    1  UNL1        0.1000
      3 C          10.4681   40.3295    8.9906 C.ar    1  UNL1        0.0165
      4 C          11.8289   40.0072    8.8855 C.ar    1  UNL1       -0.0168
      5 C          12.6057   40.6226    7.9018 C.ar    1  UNL1        0.0302
      6 N          10.6833   41.8075    7.1275 N.ar    1  UNL1       -0.2291
      7 C          12.4914   39.0777    9.8527 C.3     1  UNL1        0.0385
      8 C          13.5286   39.7612   10.7394 C.3     1  UNL1        0.0072
      9 C          14.0650   38.7828   11.7809 C.3     1  UNL1        0.0177
     10 C          14.0301   37.3279   11.2944 C.3     1  UNL1        0.0725
     11 C          13.0831   37.8525    9.1373 C.3     1  UNL1        0.0768
     12 N          14.2274   37.2587    9.8442 N.3     1  UNL1       -0.2661
     13 C          14.2385   35.8529    9.4835 C.3     1  UNL1        0.1371
     14 C          15.4848   35.5149    8.7324 C.ar    1  UNL1        0.1368
     15 C          17.3802   35.7296    7.7811 C.ar    1  UNL1        0.1189
     16 C          17.0087   34.3950    7.7126 C.ar    1  UNL1        0.0978
     17 C          15.0573   33.0526    8.4830 C.3     1  UNL1        0.1317
     18 N          16.4233   36.4288    8.4260 N.ar    1  UNL1       -0.2279
     19 N          15.8149   34.2823    8.3130 N.ar    1  UNL1       -0.3106
     20 N          12.8285   42.1651    6.0287 N.pl3   1  UNL1       -0.2834
     21 H          12.5419   42.0846    5.0903 H       1  UNL1        0.1550
     22 C          17.1790   42.5688    8.2393 C.3     1  UNL1        0.0521
     23 C          16.1399   43.1321    7.3418 C.ar    1  UNL1        0.0608
     24 C          14.0233   42.9152    6.2799 C.ar    1  UNL1        0.1328
     25 C          14.1764   44.1713    5.6869 C.ar    1  UNL1        0.0344
     26 C          15.3335   44.9125    5.9349 C.ar    1  UNL1        0.0041
     27 C          16.3219   44.3950    6.7731 C.ar    1  UNL1        0.0148
     28 N          15.0038   42.4280    7.0908 N.ar    1  UNL1       -0.2349
@<TRIPOS>BOND
     1    22    23    1
     2    24    28   ar
     3    24    20    1
     4    25    26   ar
     5    27    23   ar
     6     2     6   ar
     7     3     4   ar
     8     5     1   ar
     9     7     4    1
    10     7     8    1
    11     8     9    1
    12     9    10    1
    13    10    12    1
    14    11    12    1
    15    11     7    1
    16    13    12    1
    17    13    14    1
    18    15    18   ar
    19    16    19   ar
    20    17    19    1
    21    20     1    1
    22    19    14   ar
    23    23    28   ar
    24    24    25   ar
    25    26    27   ar
    26     1     6   ar
    27     2     3   ar
    28     4     5   ar
    29    14    18   ar
    30    15    16   ar
    31    20    21    1
@<TRIPOS>MOLECULE
MolPort-046-971-536 MCULE-6973823244 PubChem-110111462
 28 31 0 0 0
SMALL
GASTEIGER

@<TRIPOS>ATOM
      1 C          15.7154   40.0919    9.9196 C.ar    1  UNL1        0.1329
      2 C          15.0473   38.6872   11.7216 C.ar    1  UNL1        0.1000
      3 C          13.7081   38.8009   11.3418 C.ar    1  UNL1        0.0165
      4 C          13.3731   39.5919   10.2334 C.ar    1  UNL1       -0.0168
      5 C          14.3865   40.2241    9.5102 C.ar    1  UNL1        0.0302
      6 N          16.0134   39.3279   11.0100 N.ar    1  UNL1       -0.2291
      7 C          11.9606   39.7135    9.7551 C.3     1  UNL1        0.0385
      8 C          11.7237   39.0732    8.3903 C.3     1  UNL1        0.0072
      9 C          10.2414   39.1235    8.0298 C.3     1  UNL1        0.0177
     10 C           9.5219   40.3214    8.6638 C.3     1  UNL1        0.0725
     11 C          11.4838   41.1746    9.7813 C.3     1  UNL1        0.0768
     12 N          10.4301   41.4635    8.7973 N.3     1  UNL1       -0.2661
     13 C           9.6552   42.5606    9.3470 C.3     1  UNL1        0.1371
     14 C           8.7590   42.0735   10.4384 C.ar    1  UNL1        0.1368
     15 C           8.1118   41.3433   12.3335 C.ar    1  UNL1        0.1189
     16 C           6.9917   41.5481   11.5415 C.ar    1  UNL1        0.0978
     17 C           6.5794   42.3650    9.2250 C.3     1  UNL1        0.1317
     18 N           9.2191   41.6786   11.6394 N.ar    1  UNL1       -0.2279
     19 N           7.4202   42.0038   10.3553 N.ar    1  UNL1       -0.3106
     20 N          16.7444   40.7230    9.1508 N.pl3   1  UNL1       -0.2834
     21 H          17.6218   40.2770    9.1294 H       1  UNL1        0.1550
     22 C          14.2092   43.5440    6.0539 C.3     1  UNL1        0.0521
     23 C          15.4038   43.3303    6.9081 C.ar    1  UNL1        0.0608
     24 C          16.6186   41.9427    8.4093 C.ar    1  UNL1        0.1328
     25 C          17.6343   42.8989    8.4935 C.ar    1  UNL1        0.0344
     26 C          17.5235   44.0857    7.7661 C.ar    1  UNL1        0.0041
     27 C          16.4043   44.3037    6.9614 C.ar    1  UNL1        0.0148
     28 N          15.5327   42.1794    7.6212 N.ar    1  UNL1       -0.2349
@<TRIPOS>BOND
     1    22    23    1
     2    24    28   ar
     3    24    20    1
     4    25    26   ar
     5    27    23   ar
     6     2     6   ar
     7     3     4   ar
     8     5     1   ar
     9     7     4    1
    10     7     8    1
    11     8     9    1
    12     9    10    1
    13    10    12    1
    14    11    12    1
    15    11     7    1
    16    13    12    1
    17    13    14    1
    18    15    18   ar
    19    16    19   ar
    20    17    19    1
    21    20     1    1
    22    19    14   ar
    23    23    28   ar
    24    24    25   ar
    25    26    27   ar
    26     1     6   ar
    27     2     3   ar
    28     4     5   ar
    29    14    18   ar
    30    15    16   ar
    31    20    21    1
@<TRIPOS>MOLECULE
MolPort-046-971-536 MCULE-6973823244 PubChem-110111462
 28 31 0 0 0
SMALL
GASTEIGER

@<TRIPOS>ATOM
      1 C          13.9960   40.6124    9.3674 C.ar    1  UNL1        0.1329
      2 C          12.8542   39.6398   11.2160 C.ar    1  UNL1        0.1000
      3 C          11.7270   40.4235   10.9594 C.ar    1  UNL1        0.0165
      4 C          11.7493   41.3298    9.8895 C.ar    1  UNL1       -0.0168
      5 C          12.8846   41.4084    9.0805 C.ar    1  UNL1        0.0302
      6 N          13.9538   39.7488   10.4229 N.ar    1  UNL1       -0.2291
      7 C          10.5553   42.1616    9.5416 C.3     1  UNL1        0.0385
      8 C          10.3735   43.3741   10.4502 C.3     1  UNL1        0.0072
      9 C           9.2173   44.2396    9.9564 C.3     1  UNL1        0.0177
     10 C           8.1454   43.4252    9.2198 C.3     1  UNL1        0.0725
     11 C           9.2775   41.3094    9.4786 C.3     1  UNL1        0.0768
     12 N           8.0528   42.0697    9.7682 N.3     1  UNL1       -0.2661
     13 C           6.9823   41.3957    9.0566 C.3     1  UNL1        0.1371
     14 C           5.6822   42.0965    9.2807 C.ar    1  UNL1        0.1368
     15 C           4.0194   43.3955    8.9779 C.ar    1  UNL1        0.1189
     16 C           3.7908   42.6591   10.1308 C.ar    1  UNL1        0.0978
     17 C           5.0221   40.8939   11.3844 C.3     1  UNL1        0.1317
     18 N           5.2055   43.0363    8.4443 N.ar    1  UNL1       -0.2279
     19 N           4.8476   41.8520   10.3044 N.ar    1  UNL1       -0.3106
     20 N          15.1408   40.6846    8.5116 N.pl3   1  UNL1       -0.2834
     21 H          15.4694   39.8366    8.1345 H       1  UNL1        0.1550
     22 C          15.3797   44.8638    5.9712 C.3     1  UNL1        0.0521
     23 C          15.9910   43.9089    6.9288 C.ar    1  UNL1        0.0608
     24 C          15.8540   41.8741    8.1518 C.ar    1  UNL1        0.1328
     25 C          17.1200   42.1010    8.6983 C.ar    1  UNL1        0.0344
     26 C          17.8254   43.2530    8.3447 C.ar    1  UNL1        0.0041
     27 C          17.2625   44.1629    7.4487 C.ar    1  UNL1        0.0148
     28 N          15.3223   42.7789    7.2829 N.ar    1  UNL1       -0.2349
@<TRIPOS>BOND
     1    22    23    1
     2    24    28   ar
     3    24    20    1
     4    25    26   ar
     5    27    23   ar
     6     2     6   ar
     7     3     4   ar
     8     5     1   ar
     9     7     4    1
    10     7     8    1
    11     8     9    1
    12     9    10    1
    13    10    12    1
    14    11    12    1
    15    11     7    1
    16    13    12    1
    17    13    14    1
    18    15    18   ar
    19    16    19   ar
    20    17    19    1
    21    20     1    1
    22    19    14   ar
    23    23    28   ar
    24    24    25   ar
    25    26    27   ar
    26     1     6   ar
    27     2     3   ar
    28     4     5   ar
    29    14    18   ar
    30    15    16   ar
    31    20    21    1
@<TRIPOS>MOLECULE
MolPort-046-971-536 MCULE-6973823244 PubChem-110111462
 28 31 0 0 0
SMALL
GASTEIGER

@<TRIPOS>ATOM
      1 C          14.6516   40.4667    9.2746 C.ar    1  UNL1        0.1329
      2 C          13.0959   39.4971   10.7933 C.ar    1  UNL1        0.1000
      3 C          12.1101   39.4776    9.8041 C.ar    1  UNL1        0.0165
      4 C          12.4064   39.9795    8.5287 C.ar    1  UNL1       -0.0168
      5 C          13.6904   40.4586    8.2612 C.ar    1  UNL1        0.0302
      6 N          14.3335   39.9857   10.5111 N.ar    1  UNL1       -0.2291
      7 C          11.4034   39.9426    7.4191 C.3     1  UNL1        0.0385
      8 C          11.7283   40.8977    6.2740 C.3     1  UNL1        0.0072
      9 C          10.7367   40.7110    5.1287 C.3     1  UNL1        0.0177
     10 C           9.3630   40.2277    5.6126 C.3     1  UNL1        0.0725
     11 C           9.9761   40.1614    7.9461 C.3     1  UNL1        0.0768
     12 N           9.0686   40.7494    6.9498 N.3     1  UNL1       -0.2661
     13 C           7.7359   40.2936    7.2998 C.3     1  UNL1        0.1371
     14 C           7.0012   41.3534    8.0538 C.ar    1  UNL1        0.1368
     15 C           6.0613   42.3945    9.6590 C.ar    1  UNL1        0.1189
     16 C           6.0142   43.2012    8.5316 C.ar    1  UNL1        0.0978
     17 C           6.7933   43.0060    6.1740 C.3     1  UNL1        0.1317
     18 N           6.6857   41.2373    9.3565 N.ar    1  UNL1       -0.2279
     19 N           6.6070   42.5279    7.5347 N.ar    1  UNL1       -0.3106
     20 N          15.9707   40.9347    8.9761 N.pl3   1  UNL1       -0.2834
     21 H          16.7219   40.4057    9.3297 H       1  UNL1        0.1550
     22 C          14.7386   44.2724    5.6118 C.3     1  UNL1        0.0521
     23 C          15.7240   43.7330    6.5816 C.ar    1  UNL1        0.0608
     24 C          16.3016   42.1004    8.2112 C.ar    1  UNL1        0.1328
     25 C          17.5546   42.6949    8.3831 C.ar    1  UNL1        0.0344
     26 C          17.8881   43.8253    7.6342 C.ar    1  UNL1        0.0041
     27 C          16.9709   44.3472    6.7211 C.ar    1  UNL1        0.0148
     28 N          15.4203   42.6305    7.3176 N.ar    1  UNL1       -0.2349
@<TRIPOS>BOND
     1    22    23    1
     2    24    28   ar
     3    24    20    1
     4    25    26   ar
     5    27    23   ar
     6     2     6   ar
     7     3     4   ar
     8     5     1   ar
     9     7     4    1
    10     7     8    1
    11     8     9    1
    12     9    10    1
    13    10    12    1
    14    11    12    1
    15    11     7    1
    16    13    12    1
    17    13    14    1
    18    15    18   ar
    19    16    19   ar
    20    17    19    1
    21    20     1    1
    22    19    14   ar
    23    23    28   ar
    24    24    25   ar
    25    26    27   ar
    26     1     6   ar
    27     2     3   ar
    28     4     5   ar
    29    14    18   ar
    30    15    16   ar
    31    20    21    1
@<TRIPOS>MOLECULE
MolPort-046-971-536 MCULE-6973823244 PubChem-110111462
 28 31 0 0 0
SMALL
GASTEIGER

@<TRIPOS>ATOM
      1 C          13.2410   41.0216    8.5591 C.ar    1  UNL1        0.1329
      2 C          13.3900   39.8819   10.6438 C.ar    1  UNL1        0.1000
      3 C          12.1270   40.3493   11.0138 C.ar    1  UNL1        0.0165
      4 C          11.4187   41.1831   10.1365 C.ar    1  UNL1       -0.0168
      5 C          11.9740   41.5035    8.8961 C.ar    1  UNL1        0.0302
      6 N          13.9154   40.2236    9.4366 N.ar    1  UNL1       -0.2291
      7 C          10.0442   41.6764   10.4618 C.3     1  UNL1        0.0385
      8 C           9.4728   41.0815   11.7457 C.3     1  UNL1        0.0072
      9 C           8.1297   41.7258   12.0782 C.3     1  UNL1        0.0177
     10 C           7.3801   42.2029   10.8271 C.3     1  UNL1        0.0725
     11 C           9.0843   41.4833    9.2768 C.3     1  UNL1        0.0768
     12 N           7.6779   41.3401    9.6809 N.3     1  UNL1       -0.2661
     13 C           6.8865   41.8268    8.5658 C.3     1  UNL1        0.1371
     14 C           5.4402   41.8827    8.9351 C.ar    1  UNL1        0.1368
     15 C           3.5267   41.2913    9.6649 C.ar    1  UNL1        0.1189
     16 C           3.4527   42.6221    9.2812 C.ar    1  UNL1        0.0978
     17 C           5.0417   44.2873    8.3294 C.3     1  UNL1        0.1317
     18 N           4.7770   40.8317    9.4505 N.ar    1  UNL1       -0.2279
     19 N           4.6635   42.9729    8.8235 N.ar    1  UNL1       -0.3106
     20 N          13.7835   41.3360    7.2727 N.pl3   1  UNL1       -0.2834
     21 H          13.5992   40.7003    6.5438 H       1  UNL1        0.1550
     22 C          17.8776   43.9607    7.8428 C.3     1  UNL1        0.0521
     23 C          16.5502   43.7784    7.2048 C.ar    1  UNL1        0.0608
     24 C          14.5695   42.4884    6.9450 C.ar    1  UNL1        0.1328
     25 C          14.0601   43.4264    6.0429 C.ar    1  UNL1        0.0344
     26 C          14.8160   44.5570    5.7262 C.ar    1  UNL1        0.0041
     27 C          16.0680   44.7408    6.3145 C.ar    1  UNL1        0.0148
     28 N          15.7966   42.6863    7.5030 N.ar    1  UNL1       -0.2349
@<TRIPOS>BOND
     1    22    23    1
     2    24    28   ar
     3    24    20    1
     4    25    26   ar
     5    27    23   ar
     6     2     6   ar
     7     3     4   ar
     8     5     1   ar
     9     7     4    1
    10     7     8    1
    11     8     9    1
    12     9    10    1
    13    10    12    1
    14    11    12    1
    15    11     7    1
    16    13    12    1
    17    13    14    1
    18    15    18   ar
    19    16    19   ar
    20    17    19    1
    21    20     1    1
    22    19    14   ar
    23    23    28   ar
    24    24    25   ar
    25    26    27   ar
    26     1     6   ar
    27     2     3   ar
    28     4     5   ar
    29    14    18   ar
    30    15    16   ar
    31    20    21    1
@<TRIPOS>MOLECULE
MolPort-046-971-536 MCULE-6973823244 PubChem-110111462
 28 31 0 0 0
SMALL
GASTEIGER

@<TRIPOS>ATOM
      1 C          12.3506   41.5392    6.7332 C.ar    1  UNL1        0.1329
      2 C          10.8837   39.7491    6.1759 C.ar    1  UNL1        0.1000
      3 C          10.0198   40.1057    7.2137 C.ar    1  UNL1        0.0165
      4 C          10.3442   41.1960    8.0337 C.ar    1  UNL1       -0.0168
      5 C          11.5071   41.9252    7.7774 C.ar    1  UNL1        0.0302
      6 N          12.0192   40.4658    5.9589 N.ar    1  UNL1       -0.2291
      7 C           9.4342   41.6498    9.1312 C.3     1  UNL1        0.0385
      8 C           9.8706   41.1798   10.5160 C.3     1  UNL1        0.0072
      9 C           8.9717   41.7858   11.5905 C.3     1  UNL1        0.0177
     10 C           7.5536   42.0719   11.0788 C.3     1  UNL1        0.0725
     11 C           7.9735   41.2678    8.8422 C.3     1  UNL1        0.0768
     12 N           7.1623   41.0978   10.0566 N.3     1  UNL1       -0.2661
     13 C           5.7964   41.4072    9.6756 C.3     1  UNL1        0.1371
     14 C           5.7520   42.6526    8.8519 C.ar    1  UNL1        0.1368
     15 C           6.3667   44.2301    7.5568 C.ar    1  UNL1        0.1189
     16 C           5.0228   44.4080    7.8503 C.ar    1  UNL1        0.0978
     17 C           3.3266   43.1957    9.2128 C.3     1  UNL1        0.1317
     18 N           6.8199   43.1246    8.1835 N.ar    1  UNL1       -0.2279
     19 N           4.6574   43.4088    8.6667 N.ar    1  UNL1       -0.3106
     20 N          13.5237   42.3142    6.4661 N.pl3   1  UNL1       -0.2834
     21 H          13.4828   42.9366    5.7044 H       1  UNL1        0.1550
     22 C          18.0252   44.0584    7.2849 C.3     1  UNL1        0.0521
     23 C          16.9406   43.1020    7.6188 C.ar    1  UNL1        0.0608
     24 C          14.7523   42.2700    7.2023 C.ar    1  UNL1        0.1328
     25 C          14.9090   41.3136    8.2092 C.ar    1  UNL1        0.0344
     26 C          16.1071   41.2580    8.9243 C.ar    1  UNL1        0.0041
     27 C          17.1351   42.1531    8.6253 C.ar    1  UNL1        0.0148
     28 N          15.7678   43.1370    6.9313 N.ar    1  UNL1       -0.2349
@<TRIPOS>BOND
     1    22    23    1
     2    24    28   ar
     3    24    20    1
     4    25    26   ar
     5    27    23   ar
     6     2     6   ar
     7     3     4   ar
     8     5     1   ar
     9     7     4    1
    10     7     8    1
    11     8     9    1
    12     9    10    1
    13    10    12    1
    14    11    12    1
    15    11     7    1
    16    13    12    1
    17    13    14    1
    18    15    18   ar
    19    16    19   ar
    20    17    19    1
    21    20     1    1
    22    19    14   ar
    23    23    28   ar
    24    24    25   ar
    25    26    27   ar
    26     1     6   ar
    27     2     3   ar
    28     4     5   ar
    29    14    18   ar
    30    15    16   ar
    31    20    21    1
@<TRIPOS>MOLECULE
MolPort-046-971-536 MCULE-6973823244 PubChem-110111462
 28 31 0 0 0
SMALL
GASTEIGER

@<TRIPOS>ATOM
      1 C           7.7409   41.6217   11.0819 C.ar    1  UNL1        0.1329
      2 C           9.0072   41.2672   13.0662 C.ar    1  UNL1        0.1000
      3 C          10.1839   41.1598   12.3216 C.ar    1  UNL1        0.0165
      4 C          10.1259   41.2726   10.9250 C.ar    1  UNL1       -0.0168
      5 C           8.8990   41.5232   10.3073 C.ar    1  UNL1        0.0302
      6 N           7.8224   41.4940   12.4378 N.ar    1  UNL1       -0.2291
      7 C          11.3600   41.2103   10.0815 C.3     1  UNL1        0.0385
      8 C          11.2836   42.0766    8.8274 C.3     1  UNL1        0.0072
      9 C          12.6196   42.0623    8.0894 C.3     1  UNL1        0.0177
     10 C          13.3979   40.7578    8.3066 C.3     1  UNL1        0.0725
     11 C          11.7331   39.7586    9.7402 C.3     1  UNL1        0.0768
     12 N          12.4819   39.6277    8.4817 N.3     1  UNL1       -0.2661
     13 C          13.2988   38.4362    8.6208 C.3     1  UNL1        0.1371
     14 C          14.4591   38.6994    9.5240 C.ar    1  UNL1        0.1368
     15 C          16.2868   39.5066   10.2669 C.ar    1  UNL1        0.1189
     16 C          15.7506   38.6777   11.2411 C.ar    1  UNL1        0.0978
     17 C          13.7049   37.2720   11.4480 C.3     1  UNL1        0.1317
     18 N          15.4711   39.5215    9.1922 N.ar    1  UNL1       -0.2279
     19 N          14.6051   38.1789   10.7537 N.ar    1  UNL1       -0.3106
     20 N           6.4961   41.9070   10.4359 N.pl3   1  UNL1       -0.2834
     21 H           5.6812   41.5594   10.8653 H       1  UNL1        0.1550
     22 C           3.9006   45.0781    7.7558 C.3     1  UNL1        0.0521
     23 C           5.0801   44.1899    7.9046 C.ar    1  UNL1        0.0608
     24 C           6.3236   42.6505    9.2232 C.ar    1  UNL1        0.1328
     25 C           7.2628   42.5093    8.1981 C.ar    1  UNL1        0.0344
     26 C           7.0961   43.2231    7.0095 C.ar    1  UNL1        0.0041
     27 C           5.9944   44.0657    6.8557 C.ar    1  UNL1        0.0148
     28 N           5.2585   43.4829    9.0525 N.ar    1  UNL1       -0.2349
@<TRIPOS>BOND
     1    22    23    1
     2    24    28   ar
     3    24    20    1
     4    25    26   ar
     5    27    23   ar
     6     2     6   ar
     7     3     4   ar
     8     5     1   ar
     9     7     4    1
    10     7     8    1
    11     8     9    1
    12     9    10    1
    13    10    12    1
    14    11    12    1
    15    11     7    1
    16    13    12    1
    17    13    14    1
    18    15    18   ar
    19    16    19   ar
    20    17    19    1
    21    20     1    1
    22    19    14   ar
    23    23    28   ar
    24    24    25   ar
    25    26    27   ar
    26     1     6   ar
    27     2     3   ar
    28     4     5   ar
    29    14    18   ar
    30    15    16   ar
    31    20    21    1
