@<TRIPOS>MOLECULE
MolPort-007-710-791 ChemDiv-D481-2659 MCULE-6464981185 PubChem-46269944 ZINC000033019591 ZINC33019591
 32 35 0 0 0
SMALL
GASTEIGER

@<TRIPOS>ATOM
      1 C           8.7139   42.0464    7.0153 C.ar    1  UNL1        0.1706
      2 C          10.6896   41.6162    6.3870 C.ar    1  UNL1        0.1975
      3 N           8.7889   42.3306    5.6985 N.ar    1  UNL1       -0.1279
      4 N          10.0259   42.0645    5.3064 N.ar    1  UNL1       -0.1218
      5 N           9.9012   41.5902    7.4805 N.ar    1  UNL1       -0.2690
      6 C           5.0300   42.4439    9.1894 C.ar    1  UNL1        0.0503
      7 C           5.6131   41.1838    9.0243 C.ar    1  UNL1        0.0148
      8 C           6.8145   41.0472    8.3238 C.ar    1  UNL1        0.0043
      9 C           7.4581   42.1709    7.7873 C.ar    1  UNL1        0.0364
     10 C           6.8657   43.4314    7.9423 C.ar    1  UNL1        0.0043
     11 C           5.6633   43.5684    8.6412 C.ar    1  UNL1        0.0148
     12 C           2.1953   42.2273   11.8351 C.3     1  UNL1        0.0949
     13 C           3.5528   42.0768   11.2507 C.2     1  UNL1        0.2266
     14 O           4.4645   41.5444   11.9368 O.2     1  UNL1       -0.2748
     15 N           3.7994   42.5455    9.9190 N.am    1  UNL1       -0.2839
     16 H           3.0470   42.9818    9.4578 H       1  UNL1        0.1549
     17 C          10.3059   41.3014    8.8271 C.ar    1  UNL1        0.0672
     18 C          10.2588   42.3027    9.8072 C.ar    1  UNL1        0.0176
     19 C          10.6230   42.0152   11.1256 C.ar    1  UNL1        0.0015
     20 C          11.0294   40.7236   11.4729 C.ar    1  UNL1        0.0001
     21 C          11.0692   39.7184   10.5024 C.ar    1  UNL1        0.0015
     22 C          10.7048   40.0050    9.1839 C.ar    1  UNL1        0.0176
     23 S          12.4335   41.2024    6.3667 S.3     1  UNL1       -0.0655
     24 C          12.8782   42.7358    7.2333 C.3     1  UNL1        0.1500
     25 C          13.8566   43.5199    6.4208 C.2     1  UNL1        0.2372
     26 C          16.1777   44.3649    5.9879 C.3     1  UNL1        0.1255
     27 C          17.5792   43.7588    6.0599 C.3     1  UNL1        0.1636
     28 C          17.1632   42.5044    7.8793 C.3     1  UNL1        0.1636
     29 C          15.7097   42.9548    8.0265 C.3     1  UNL1        0.1255
     30 O          13.4458   44.1459    5.4062 O.2     1  UNL1       -0.2739
     31 O          17.9473   43.5693    7.4031 O.3     1  UNL1       -0.3501
     32 N          15.2492   43.5446    6.7679 N.am    1  UNL1       -0.2737
@<TRIPOS>BOND
     1    12    13    1
     2    13    15   am
     3     7     8   ar
     4     9    10   ar
     5     9     1    1
     6    11     6   ar
     7     2    23    1
     8     2     5   ar
     9    24    23    1
    10    24    25    1
    11    25    32   am
    12    26    32    1
    13    26    27    1
    14    27    31    1
    15    28    31    1
    16    28    29    1
    17    29    32    1
    18    18    19   ar
    19    20    21   ar
    20    22    17   ar
    21    15     6    1
    22     3     4   ar
    23     5    17    1
    24     5     1   ar
    25    13    14    2
    26     6     7   ar
    27     8     9   ar
    28    10    11   ar
    29     1     3   ar
    30     2     4   ar
    31    25    30    2
    32    17    18   ar
    33    19    20   ar
    34    21    22   ar
    35    15    16    1
@<TRIPOS>MOLECULE
MolPort-007-710-791 ChemDiv-D481-2659 MCULE-6464981185 PubChem-46269944 ZINC000033019591 ZINC33019591
 32 35 0 0 0
SMALL
GASTEIGER

@<TRIPOS>ATOM
      1 C           8.7402   41.9794    6.9031 C.ar    1  UNL1        0.1706
      2 C          10.7455   41.5668    6.3628 C.ar    1  UNL1        0.1975
      3 N           8.8625   42.2335    5.5836 N.ar    1  UNL1       -0.1279
      4 N          10.1179   41.9784    5.2466 N.ar    1  UNL1       -0.1218
      5 N           9.9152   41.5538    7.4251 N.ar    1  UNL1       -0.2690
      6 C           5.0326   42.2812    9.0521 C.ar    1  UNL1        0.0503
      7 C           5.7738   43.4327    8.7695 C.ar    1  UNL1        0.0148
      8 C           6.9777   43.3433    8.0655 C.ar    1  UNL1        0.0043
      9 C           7.4533   42.1015    7.6224 C.ar    1  UNL1        0.0364
     10 C           6.7159   40.9470    7.9178 C.ar    1  UNL1        0.0043
     11 C           5.5129   41.0355    8.6234 C.ar    1  UNL1        0.0148
     12 C           2.2077   42.2361   11.7166 C.3     1  UNL1        0.0949
     13 C           3.5697   42.0751   11.1457 C.2     1  UNL1        0.2266
     14 O           4.5001   41.6491   11.8794 O.2     1  UNL1       -0.2748
     15 N           3.7992   42.4130    9.7720 N.am    1  UNL1       -0.2839
     16 H           3.0315   42.7723    9.2712 H       1  UNL1        0.1549
     17 C          10.2711   41.3036    8.7930 C.ar    1  UNL1        0.0672
     18 C          10.7104   40.0316    9.1856 C.ar    1  UNL1        0.0176
     19 C          11.0870   39.7944   10.5105 C.ar    1  UNL1        0.0015
     20 C          11.0329   40.8293   11.4486 C.ar    1  UNL1        0.0001
     21 C          10.6050   42.1024   11.0614 C.ar    1  UNL1        0.0015
     22 C          10.2287   42.3404    9.7366 C.ar    1  UNL1        0.0176
     23 S          12.4951   41.1812    6.4205 S.3     1  UNL1       -0.0655
     24 C          12.8856   42.7556    7.2382 C.3     1  UNL1        0.1500
     25 C          13.8522   43.5385    6.4106 C.2     1  UNL1        0.2372
     26 C          16.1685   44.3755    5.9381 C.3     1  UNL1        0.1255
     27 C          17.5684   43.7634    5.9822 C.3     1  UNL1        0.1636
     28 C          17.1807   42.5043    7.8046 C.3     1  UNL1        0.1636
     29 C          15.7321   42.9602    7.9801 C.3     1  UNL1        0.1255
     30 O          13.4255   44.1698    5.4059 O.2     1  UNL1       -0.2739
     31 O          17.9604   43.5676    7.3178 O.3     1  UNL1       -0.3501
     32 N          15.2510   43.5563    6.7322 N.am    1  UNL1       -0.2737
@<TRIPOS>BOND
     1    12    13    1
     2    13    15   am
     3     7     8   ar
     4     9    10   ar
     5     9     1    1
     6    11     6   ar
     7     2    23    1
     8     2     5   ar
     9    24    23    1
    10    24    25    1
    11    25    32   am
    12    26    32    1
    13    26    27    1
    14    27    31    1
    15    28    31    1
    16    28    29    1
    17    29    32    1
    18    18    19   ar
    19    20    21   ar
    20    22    17   ar
    21    15     6    1
    22     3     4   ar
    23     5    17    1
    24     5     1   ar
    25    13    14    2
    26     6     7   ar
    27     8     9   ar
    28    10    11   ar
    29     1     3   ar
    30     2     4   ar
    31    25    30    2
    32    17    18   ar
    33    19    20   ar
    34    21    22   ar
    35    15    16    1
@<TRIPOS>MOLECULE
MolPort-007-710-791 ChemDiv-D481-2659 MCULE-6464981185 PubChem-46269944 ZINC000033019591 ZINC33019591
 32 35 0 0 0
SMALL
GASTEIGER

@<TRIPOS>ATOM
      1 C          10.8795   41.3298    6.2206 C.ar    1  UNL1        0.1706
      2 C           8.7741   41.1132    6.1609 C.ar    1  UNL1        0.1975
      3 N          10.5690   40.7307    5.0523 N.ar    1  UNL1       -0.1279
      4 N           9.2521   40.5923    5.0166 N.ar    1  UNL1       -0.1218
      5 N           9.7640   41.5865    6.9445 N.ar    1  UNL1       -0.2690
      6 C          14.8774   42.4720    7.3012 C.ar    1  UNL1        0.0503
      7 C          14.2826   41.3562    7.8980 C.ar    1  UNL1        0.0148
      8 C          12.9848   40.9747    7.5471 C.ar    1  UNL1        0.0043
      9 C          12.2656   41.6965    6.5847 C.ar    1  UNL1        0.0364
     10 C          12.8583   42.8223    5.9971 C.ar    1  UNL1        0.0043
     11 C          14.1553   43.2054    6.3489 C.ar    1  UNL1        0.0148
     12 C          18.4377   44.0034    7.5480 C.3     1  UNL1        0.0949
     13 C          17.0575   43.7930    7.0404 C.2     1  UNL1        0.2266
     14 O          16.6518   44.4676    6.0577 O.2     1  UNL1       -0.2748
     15 N          16.2129   42.8298    7.6827 N.am    1  UNL1       -0.2839
     16 H          16.5878   42.3662    8.4661 H       1  UNL1        0.1549
     17 C           9.6380   42.0825    8.2856 C.ar    1  UNL1        0.0672
     18 C           9.9445   41.2548    9.3748 C.ar    1  UNL1        0.0176
     19 C           9.8523   41.7457   10.6802 C.ar    1  UNL1        0.0015
     20 C           9.4598   43.0686   10.9035 C.ar    1  UNL1        0.0001
     21 C           9.1623   43.9019    9.8214 C.ar    1  UNL1        0.0015
     22 C           9.2547   43.4118    8.5157 C.ar    1  UNL1        0.0176
     23 S           7.0376   41.0814    6.6045 S.3     1  UNL1       -0.0655
     24 C           7.4212   41.0015    8.3783 C.3     1  UNL1        0.1500
     25 C           6.2342   41.4258    9.1803 C.2     1  UNL1        0.2372
     26 C           4.4143   43.0662    9.7150 C.3     1  UNL1        0.1255
     27 C           3.4583   43.9267    8.8890 C.3     1  UNL1        0.1636
     28 C           4.9523   44.3955    7.2751 C.3     1  UNL1        0.1636
     29 C           6.0892   43.5887    7.9026 C.3     1  UNL1        0.1255
     30 O           5.8323   40.6835   10.1169 O.2     1  UNL1       -0.2739
     31 O           4.1671   44.9790    8.2842 O.3     1  UNL1       -0.3501
     32 N           5.5404   42.6459    8.8793 N.am    1  UNL1       -0.2737
@<TRIPOS>BOND
     1    12    13    1
     2    13    15   am
     3     7     8   ar
     4     9    10   ar
     5     9     1    1
     6    11     6   ar
     7     2    23    1
     8     2     5   ar
     9    24    23    1
    10    24    25    1
    11    25    32   am
    12    26    32    1
    13    26    27    1
    14    27    31    1
    15    28    31    1
    16    28    29    1
    17    29    32    1
    18    18    19   ar
    19    20    21   ar
    20    22    17   ar
    21    15     6    1
    22     3     4   ar
    23     5    17    1
    24     5     1   ar
    25    13    14    2
    26     6     7   ar
    27     8     9   ar
    28    10    11   ar
    29     1     3   ar
    30     2     4   ar
    31    25    30    2
    32    17    18   ar
    33    19    20   ar
    34    21    22   ar
    35    15    16    1
@<TRIPOS>MOLECULE
MolPort-007-710-791 ChemDiv-D481-2659 MCULE-6464981185 PubChem-46269944 ZINC000033019591 ZINC33019591
 32 35 0 0 0
SMALL
GASTEIGER

@<TRIPOS>ATOM
      1 C          10.1791   41.8751    7.9464 C.ar    1  UNL1        0.1706
      2 C          11.8357   40.8889    8.8217 C.ar    1  UNL1        0.1975
      3 N          11.1336   41.7719    6.9984 N.ar    1  UNL1       -0.1279
      4 N          12.1711   41.1578    7.5472 N.ar    1  UNL1       -0.1218
      5 N          10.5928   41.3236    9.1121 N.ar    1  UNL1       -0.2690
      6 C           6.3503   43.6575    7.1594 C.ar    1  UNL1        0.0503
      7 C           6.8429   42.6561    6.3169 C.ar    1  UNL1        0.0148
      8 C           8.0847   42.0671    6.5700 C.ar    1  UNL1        0.0043
      9 C           8.8483   42.4622    7.6769 C.ar    1  UNL1        0.0364
     10 C           8.3592   43.4752    8.5128 C.ar    1  UNL1        0.0043
     11 C           7.1183   44.0659    8.2592 C.ar    1  UNL1        0.0148
     12 C           2.7756   45.1645    7.3392 C.3     1  UNL1        0.0949
     13 C           4.0708   44.6212    7.8233 C.2     1  UNL1        0.2266
     14 O           4.2708   44.5138    9.0618 O.2     1  UNL1       -0.2748
     15 N           5.0695   44.2347    6.8709 N.am    1  UNL1       -0.2839
     16 H           4.8543   44.3804    5.9213 H       1  UNL1        0.1549
     17 C           9.9624   41.3303   10.4017 C.ar    1  UNL1        0.0672
     18 C           8.5643   41.3508   10.5025 C.ar    1  UNL1        0.0176
     19 C           7.9483   41.3260   11.7568 C.ar    1  UNL1        0.0015
     20 C           8.7264   41.2735   12.9169 C.ar    1  UNL1        0.0001
     21 C          10.1207   41.2430   12.8229 C.ar    1  UNL1        0.0015
     22 C          10.7374   41.2675   11.5689 C.ar    1  UNL1        0.0176
     23 S          12.9597   40.1302    9.9940 S.3     1  UNL1       -0.0655
     24 C          14.1945   39.8018    8.7027 C.3     1  UNL1        0.1500
     25 C          15.5251   40.3418    9.1150 C.2     1  UNL1        0.2372
     26 C          17.3842   42.0109    8.8974 C.3     1  UNL1        0.1255
     27 C          17.4593   43.5251    8.7026 C.3     1  UNL1        0.1636
     28 C          15.6820   43.6405    7.3300 C.3     1  UNL1        0.1636
     29 C          15.3879   42.1405    7.3607 C.3     1  UNL1        0.1255
     30 O          16.1729   39.7469   10.0185 O.2     1  UNL1       -0.2739
     31 O          17.0693   43.8565    7.3935 O.3     1  UNL1       -0.3501
     32 N          16.0539   41.5339    8.5150 N.am    1  UNL1       -0.2737
@<TRIPOS>BOND
     1    12    13    1
     2    13    15   am
     3     7     8   ar
     4     9    10   ar
     5     9     1    1
     6    11     6   ar
     7     2    23    1
     8     2     5   ar
     9    24    23    1
    10    24    25    1
    11    25    32   am
    12    26    32    1
    13    26    27    1
    14    27    31    1
    15    28    31    1
    16    28    29    1
    17    29    32    1
    18    18    19   ar
    19    20    21   ar
    20    22    17   ar
    21    15     6    1
    22     3     4   ar
    23     5    17    1
    24     5     1   ar
    25    13    14    2
    26     6     7   ar
    27     8     9   ar
    28    10    11   ar
    29     1     3   ar
    30     2     4   ar
    31    25    30    2
    32    17    18   ar
    33    19    20   ar
    34    21    22   ar
    35    15    16    1
@<TRIPOS>MOLECULE
MolPort-007-710-791 ChemDiv-D481-2659 MCULE-6464981185 PubChem-46269944 ZINC000033019591 ZINC33019591
 32 35 0 0 0
SMALL
GASTEIGER

@<TRIPOS>ATOM
      1 C           6.2095   41.0816    8.0545 C.ar    1  UNL1        0.1706
      2 C           7.8305   41.1892    6.6966 C.ar    1  UNL1        0.1975
      3 N           5.8531   40.3991    6.9465 N.ar    1  UNL1       -0.1279
      4 N           6.8660   40.4694    6.0959 N.ar    1  UNL1       -0.1218
      5 N           7.4572   41.5927    7.9278 N.ar    1  UNL1       -0.2690
      6 C           3.6467   41.2746   11.4970 C.ar    1  UNL1        0.0503
      7 C           5.0342   41.2143   11.6595 C.ar    1  UNL1        0.0148
      8 C           5.8747   41.1576   10.5445 C.ar    1  UNL1        0.0043
      9 C           5.3409   41.1724    9.2485 C.ar    1  UNL1        0.0364
     10 C           3.9497   41.2197    9.0875 C.ar    1  UNL1        0.0043
     11 C           3.1085   41.2745   10.2022 C.ar    1  UNL1        0.0148
     12 C           0.9499   42.1385   14.1546 C.3     1  UNL1        0.0949
     13 C           1.6674   42.1725   12.8542 C.2     1  UNL1        0.2266
     14 O           1.2513   42.9310   11.9393 O.2     1  UNL1       -0.2748
     15 N           2.8164   41.3372   12.6648 N.am    1  UNL1       -0.2839
     16 H           3.0609   40.7458   13.4129 H       1  UNL1        0.1549
     17 C           8.1720   42.4860    8.7947 C.ar    1  UNL1        0.0672
     18 C           9.1810   41.9954    9.6353 C.ar    1  UNL1        0.0176
     19 C           9.8992   42.8683   10.4572 C.ar    1  UNL1        0.0015
     20 C           9.6174   44.2373   10.4382 C.ar    1  UNL1        0.0001
     21 C           8.6193   44.7342    9.5952 C.ar    1  UNL1        0.0015
     22 C           7.9009   43.8619    8.7727 C.ar    1  UNL1        0.0176
     23 S           9.3744   41.6237    5.8962 S.3     1  UNL1       -0.0655
     24 C          10.3127   40.4468    6.9133 C.3     1  UNL1        0.1500
     25 C          11.7062   40.9440    7.1207 C.2     1  UNL1        0.2372
     26 C          13.8184   41.0701    8.4669 C.3     1  UNL1        0.1255
     27 C          14.6613   40.0648    9.2513 C.3     1  UNL1        0.1636
     28 C          12.9065   38.8905   10.0249 C.3     1  UNL1        0.1636
     29 C          11.8499   39.7506    9.3313 C.3     1  UNL1        0.1255
     30 O          12.2104   41.7237    6.2676 O.2     1  UNL1       -0.2739
     31 O          13.9872   39.6939   10.4276 O.3     1  UNL1       -0.3501
     32 N          12.4757   40.5252    8.2578 N.am    1  UNL1       -0.2737
@<TRIPOS>BOND
     1    12    13    1
     2    13    15   am
     3     7     8   ar
     4     9    10   ar
     5     9     1    1
     6    11     6   ar
     7     2    23    1
     8     2     5   ar
     9    24    23    1
    10    24    25    1
    11    25    32   am
    12    26    32    1
    13    26    27    1
    14    27    31    1
    15    28    31    1
    16    28    29    1
    17    29    32    1
    18    18    19   ar
    19    20    21   ar
    20    22    17   ar
    21    15     6    1
    22     3     4   ar
    23     5    17    1
    24     5     1   ar
    25    13    14    2
    26     6     7   ar
    27     8     9   ar
    28    10    11   ar
    29     1     3   ar
    30     2     4   ar
    31    25    30    2
    32    17    18   ar
    33    19    20   ar
    34    21    22   ar
    35    15    16    1
@<TRIPOS>MOLECULE
MolPort-007-710-791 ChemDiv-D481-2659 MCULE-6464981185 PubChem-46269944 ZINC000033019591 ZINC33019591
 32 35 0 0 0
SMALL
GASTEIGER

@<TRIPOS>ATOM
      1 C           8.2455   41.1556    7.2948 C.ar    1  UNL1        0.1706
      2 C           9.9988   40.8075    6.1598 C.ar    1  UNL1        0.1975
      3 N           7.9586   41.4492    6.0095 N.ar    1  UNL1       -0.1279
      4 N           9.0565   41.2345    5.3002 N.ar    1  UNL1       -0.1218
      5 N           9.5297   40.7446    7.4224 N.ar    1  UNL1       -0.2690
      6 C           5.3301   41.4431   10.4369 C.ar    1  UNL1        0.0503
      7 C           4.9463   41.0133    9.1629 C.ar    1  UNL1        0.0148
      8 C           5.8901   40.9112    8.1373 C.ar    1  UNL1        0.0043
      9 C           7.2354   41.2261    8.3731 C.ar    1  UNL1        0.0364
     10 C           7.6159   41.6693    9.6469 C.ar    1  UNL1        0.0043
     11 C           6.6723   41.7734   10.6725 C.ar    1  UNL1        0.0148
     12 C           2.1298   42.1270   12.5279 C.3     1  UNL1        0.0949
     13 C           3.0164   42.0776   11.3369 C.2     1  UNL1        0.2266
     14 O           2.5932   42.5132   10.2340 O.2     1  UNL1       -0.2748
     15 N           4.3346   41.5301   11.4656 N.am    1  UNL1       -0.2839
     16 H           4.5821   41.1777   12.3509 H       1  UNL1        0.1549
     17 C          10.2869   40.4653    8.6094 C.ar    1  UNL1        0.0672
     18 C          10.5730   39.1404    8.9673 C.ar    1  UNL1        0.0176
     19 C          11.3366   38.8678   10.1057 C.ar    1  UNL1        0.0015
     20 C          11.8241   39.9182   10.8886 C.ar    1  UNL1        0.0001
     21 C          11.5506   41.2416   10.5318 C.ar    1  UNL1        0.0015
     22 C          10.7874   41.5151    9.3932 C.ar    1  UNL1        0.0176
     23 S          11.6892   40.4634    5.6727 S.3     1  UNL1       -0.0655
     24 C          12.2450   42.1166    6.1807 C.3     1  UNL1        0.1500
     25 C          13.5705   42.0256    6.8641 C.2     1  UNL1        0.2372
     26 C          15.9170   42.8322    7.2277 C.3     1  UNL1        0.1255
     27 C          16.5820   44.2035    7.3460 C.3     1  UNL1        0.1636
     28 C          15.2831   45.1917    5.7992 C.3     1  UNL1        0.1636
     29 C          14.4573   43.9416    5.4952 C.3     1  UNL1        0.1255
     30 O          13.7600   41.1108    7.7109 O.2     1  UNL1       -0.2739
     31 O          16.6100   44.8290    6.0876 O.3     1  UNL1       -0.3501
     32 N          14.6091   42.9765    6.5858 N.am    1  UNL1       -0.2737
@<TRIPOS>BOND
     1    12    13    1
     2    13    15   am
     3     7     8   ar
     4     9    10   ar
     5     9     1    1
     6    11     6   ar
     7     2    23    1
     8     2     5   ar
     9    24    23    1
    10    24    25    1
    11    25    32   am
    12    26    32    1
    13    26    27    1
    14    27    31    1
    15    28    31    1
    16    28    29    1
    17    29    32    1
    18    18    19   ar
    19    20    21   ar
    20    22    17   ar
    21    15     6    1
    22     3     4   ar
    23     5    17    1
    24     5     1   ar
    25    13    14    2
    26     6     7   ar
    27     8     9   ar
    28    10    11   ar
    29     1     3   ar
    30     2     4   ar
    31    25    30    2
    32    17    18   ar
    33    19    20   ar
    34    21    22   ar
    35    15    16    1
@<TRIPOS>MOLECULE
MolPort-007-710-791 ChemDiv-D481-2659 MCULE-6464981185 PubChem-46269944 ZINC000033019591 ZINC33019591
 32 35 0 0 0
SMALL
GASTEIGER

@<TRIPOS>ATOM
      1 C          10.9707   41.5492    6.4140 C.ar    1  UNL1        0.1706
      2 C           8.8753   41.2792    6.5542 C.ar    1  UNL1        0.1975
      3 N          10.5143   41.2849    5.1721 N.ar    1  UNL1       -0.1279
      4 N           9.2039   41.1128    5.2606 N.ar    1  UNL1       -0.1218
      5 N           9.9565   41.5542    7.3115 N.ar    1  UNL1       -0.2690
      6 C          15.0738   42.5082    7.2505 C.ar    1  UNL1        0.0503
      7 C          14.4667   41.4185    7.8823 C.ar    1  UNL1        0.0148
      8 C          13.1343   41.0965    7.6106 C.ar    1  UNL1        0.0043
      9 C          12.3913   41.8524    6.6934 C.ar    1  UNL1        0.0364
     10 C          12.9973   42.9521    6.0711 C.ar    1  UNL1        0.0043
     11 C          14.3291   43.2758    6.3437 C.ar    1  UNL1        0.0148
     12 C          18.6001   44.1085    7.5451 C.3     1  UNL1        0.0949
     13 C          17.1630   43.9905    7.1874 C.2     1  UNL1        0.2266
     14 O          16.5996   44.9359    6.5757 O.2     1  UNL1       -0.2748
     15 N          16.4446   42.8048    7.5505 N.am    1  UNL1       -0.2839
     16 H          16.9432   42.1241    8.0577 H       1  UNL1        0.1549
     17 C          10.0021   41.6553    8.7426 C.ar    1  UNL1        0.0672
     18 C           9.8460   42.9011    9.3664 C.ar    1  UNL1        0.0176
     19 C           9.8591   42.9971   10.7607 C.ar    1  UNL1        0.0015
     20 C          10.0213   41.8474   11.5391 C.ar    1  UNL1        0.0001
     21 C          10.1676   40.6010   10.9235 C.ar    1  UNL1        0.0015
     22 C          10.1543   40.5042    9.5293 C.ar    1  UNL1        0.0176
     23 S           7.2098   41.0614    7.1803 S.3     1  UNL1       -0.0655
     24 C           7.0404   42.8333    7.5430 C.3     1  UNL1        0.1500
     25 C           5.6911   43.1128    8.1205 C.2     1  UNL1        0.2372
     26 C           3.8848   42.6705    9.8030 C.3     1  UNL1        0.1255
     27 C           3.8520   42.4001   11.3071 C.3     1  UNL1        0.1636
     28 C           5.7339   41.1694   11.3319 C.3     1  UNL1        0.1636
     29 C           5.9981   41.2933    9.8312 C.3     1  UNL1        0.1255
     30 O           4.9637   43.9886    7.5785 O.2     1  UNL1       -0.2739
     31 O           4.3499   41.1122   11.5701 O.3     1  UNL1       -0.3501
     32 N           5.2325   42.4178    9.2898 N.am    1  UNL1       -0.2737
@<TRIPOS>BOND
     1    12    13    1
     2    13    15   am
     3     7     8   ar
     4     9    10   ar
     5     9     1    1
     6    11     6   ar
     7     2    23    1
     8     2     5   ar
     9    24    23    1
    10    24    25    1
    11    25    32   am
    12    26    32    1
    13    26    27    1
    14    27    31    1
    15    28    31    1
    16    28    29    1
    17    29    32    1
    18    18    19   ar
    19    20    21   ar
    20    22    17   ar
    21    15     6    1
    22     3     4   ar
    23     5    17    1
    24     5     1   ar
    25    13    14    2
    26     6     7   ar
    27     8     9   ar
    28    10    11   ar
    29     1     3   ar
    30     2     4   ar
    31    25    30    2
    32    17    18   ar
    33    19    20   ar
    34    21    22   ar
    35    15    16    1
@<TRIPOS>MOLECULE
MolPort-007-710-791 ChemDiv-D481-2659 MCULE-6464981185 PubChem-46269944 ZINC000033019591 ZINC33019591
 32 35 0 0 0
SMALL
GASTEIGER

@<TRIPOS>ATOM
      1 C          13.4936   39.8847    9.6943 C.ar    1  UNL1        0.1706
      2 C          15.5501   39.5724   10.0900 C.ar    1  UNL1        0.1975
      3 N          13.5889   38.8148   10.5107 N.ar    1  UNL1       -0.1279
      4 N          14.8757   38.6176   10.7555 N.ar    1  UNL1       -0.1218
      5 N          14.7186   40.3880    9.4108 N.ar    1  UNL1       -0.2690
      6 C           9.7581   41.5593    8.3914 C.ar    1  UNL1        0.0503
      7 C          10.2834   40.4344    7.7482 C.ar    1  UNL1        0.0148
      8 C          11.4948   39.8802    8.1702 C.ar    1  UNL1        0.0043
      9 C          12.1944   40.4354    9.2505 C.ar    1  UNL1        0.0364
     10 C          11.6732   41.5707    9.8856 C.ar    1  UNL1        0.0043
     11 C          10.4627   42.1266    9.4628 C.ar    1  UNL1        0.0148
     12 C           6.8211   42.9897    6.2914 C.3     1  UNL1        0.0949
     13 C           8.1499   42.3903    6.5779 C.2     1  UNL1        0.2266
     14 O           8.9353   42.1461    5.6245 O.2     1  UNL1       -0.2748
     15 N           8.5097   42.0968    7.9337 N.am    1  UNL1       -0.2839
     16 H           7.8303   42.2833    8.6214 H       1  UNL1        0.1549
     17 C          15.0910   41.4236    8.4893 C.ar    1  UNL1        0.0672
     18 C          16.3745   41.9850    8.5411 C.ar    1  UNL1        0.0176
     19 C          16.7493   42.9714    7.6247 C.ar    1  UNL1        0.0015
     20 C          15.8454   43.3971    6.6471 C.ar    1  UNL1        0.0001
     21 C          14.5674   42.8345    6.5838 C.ar    1  UNL1        0.0015
     22 C          14.1921   41.8477    7.4997 C.ar    1  UNL1        0.0176
     23 S          17.3398   39.6656   10.0522 S.3     1  UNL1       -0.0655
     24 C          17.5101   37.9495   10.6231 C.3     1  UNL1        0.1500
     25 C          18.3387   37.1667    9.6572 C.2     1  UNL1        0.2372
     26 C          18.5695   35.4388    7.8543 C.3     1  UNL1        0.1255
     27 C          17.7729   35.0698    6.6030 C.3     1  UNL1        0.1636
     28 C          15.7594   35.4722    7.5199 C.3     1  UNL1        0.1636
     29 C          16.3112   35.8940    8.8818 C.3     1  UNL1        0.1255
     30 O          19.5855   37.3530    9.6301 O.2     1  UNL1       -0.2739
     31 O          16.5630   34.4572    6.9726 O.3     1  UNL1       -0.3501
     32 N          17.7296   36.2334    8.7524 N.am    1  UNL1       -0.2737
@<TRIPOS>BOND
     1    12    13    1
     2    13    15   am
     3     7     8   ar
     4     9    10   ar
     5     9     1    1
     6    11     6   ar
     7     2    23    1
     8     2     5   ar
     9    24    23    1
    10    24    25    1
    11    25    32   am
    12    26    32    1
    13    26    27    1
    14    27    31    1
    15    28    31    1
    16    28    29    1
    17    29    32    1
    18    18    19   ar
    19    20    21   ar
    20    22    17   ar
    21    15     6    1
    22     3     4   ar
    23     5    17    1
    24     5     1   ar
    25    13    14    2
    26     6     7   ar
    27     8     9   ar
    28    10    11   ar
    29     1     3   ar
    30     2     4   ar
    31    25    30    2
    32    17    18   ar
    33    19    20   ar
    34    21    22   ar
    35    15    16    1
@<TRIPOS>MOLECULE
MolPort-007-710-791 ChemDiv-D481-2659 MCULE-6464981185 PubChem-46269944 ZINC000033019591 ZINC33019591
 32 35 0 0 0
SMALL
GASTEIGER

@<TRIPOS>ATOM
      1 C          10.8342   42.0732    9.1212 C.ar    1  UNL1        0.1706
      2 C           8.9628   42.7508    8.3987 C.ar    1  UNL1        0.1975
      3 N          10.4519   43.1069    9.8995 N.ar    1  UNL1       -0.1279
      4 N           9.2827   43.5327    9.4453 N.ar    1  UNL1       -0.1218
      5 N           9.9113   41.8221    8.1623 N.ar    1  UNL1       -0.2690
      6 C          14.3937   39.7742    9.8280 C.ar    1  UNL1        0.0503
      7 C          14.3466   40.6831    8.7664 C.ar    1  UNL1        0.0148
      8 C          13.1945   41.4391    8.5340 C.ar    1  UNL1        0.0043
      9 C          12.0752   41.3066    9.3671 C.ar    1  UNL1        0.0364
     10 C          12.1194   40.3857   10.4225 C.ar    1  UNL1        0.0043
     11 C          13.2705   39.6280   10.6545 C.ar    1  UNL1        0.0148
     12 C          17.3639   37.7686   11.3239 C.3     1  UNL1        0.0949
     13 C          16.0662   38.4908   11.2845 C.2     1  UNL1        0.2266
     14 O          15.4003   38.6217   12.3450 O.2     1  UNL1       -0.2748
     15 N          15.5952   39.0199   10.0387 N.am    1  UNL1       -0.2839
     16 H          16.1537   38.8480    9.2463 H       1  UNL1        0.1549
     17 C           9.9700   40.9147    7.0517 C.ar    1  UNL1        0.0672
     18 C           9.3693   39.6512    7.1414 C.ar    1  UNL1        0.0176
     19 C           9.3986   38.7784    6.0501 C.ar    1  UNL1        0.0015
     20 C          10.0224   39.1667    4.8610 C.ar    1  UNL1        0.0001
     21 C          10.6148   40.4288    4.7618 C.ar    1  UNL1        0.0015
     22 C          10.5856   41.3023    5.8525 C.ar    1  UNL1        0.0176
     23 S           7.4946   42.9981    7.4006 S.3     1  UNL1       -0.0655
     24 C           6.7599   44.1116    8.6336 C.3     1  UNL1        0.1500
     25 C           5.2917   43.8581    8.7447 C.2     1  UNL1        0.2372
     26 C           3.3512   42.4948    9.5602 C.3     1  UNL1        0.1255
     27 C           3.0021   41.7874   10.8695 C.3     1  UNL1        0.1636
     28 C           5.1045   41.1183   11.3041 C.3     1  UNL1        0.1636
     29 C           5.7104   41.7477   10.0495 C.3     1  UNL1        0.1255
     30 O           4.4905   44.6444    8.1706 O.2     1  UNL1       -0.2739
     31 O           3.8099   40.6477   11.0247 O.3     1  UNL1       -0.3501
     32 N           4.7915   42.7534    9.5127 N.am    1  UNL1       -0.2737
@<TRIPOS>BOND
     1    12    13    1
     2    13    15   am
     3     7     8   ar
     4     9    10   ar
     5     9     1    1
     6    11     6   ar
     7     2    23    1
     8     2     5   ar
     9    24    23    1
    10    24    25    1
    11    25    32   am
    12    26    32    1
    13    26    27    1
    14    27    31    1
    15    28    31    1
    16    28    29    1
    17    29    32    1
    18    18    19   ar
    19    20    21   ar
    20    22    17   ar
    21    15     6    1
    22     3     4   ar
    23     5    17    1
    24     5     1   ar
    25    13    14    2
    26     6     7   ar
    27     8     9   ar
    28    10    11   ar
    29     1     3   ar
    30     2     4   ar
    31    25    30    2
    32    17    18   ar
    33    19    20   ar
    34    21    22   ar
    35    15    16    1
@<TRIPOS>MOLECULE
MolPort-007-710-791 ChemDiv-D481-2659 MCULE-6464981185 PubChem-46269944 ZINC000033019591 ZINC33019591
 32 35 0 0 0
SMALL
GASTEIGER

@<TRIPOS>ATOM
      1 C          10.7784   40.5703   10.5410 C.ar    1  UNL1        0.1706
      2 C           9.7417   42.3962   10.2684 C.ar    1  UNL1        0.1975
      3 N          10.0222   40.7723   11.6399 N.ar    1  UNL1       -0.1279
      4 N           9.3762   41.9163   11.4706 N.ar    1  UNL1       -0.1218
      5 N          10.6214   41.5806    9.6528 N.ar    1  UNL1       -0.2690
      6 C          13.1826   37.0404   10.0761 C.ar    1  UNL1        0.0503
      7 C          11.8539   37.0450    9.6405 C.ar    1  UNL1        0.0148
      8 C          11.0674   38.1913    9.7826 C.ar    1  UNL1        0.0043
      9 C          11.6013   39.3556   10.3519 C.ar    1  UNL1        0.0364
     10 C          12.9291   39.3452   10.7999 C.ar    1  UNL1        0.0043
     11 C          13.7155   38.1986   10.6598 C.ar    1  UNL1        0.0148
     12 C          15.4930   34.2080    8.7641 C.3     1  UNL1        0.0949
     13 C          14.7908   35.5170    8.7883 C.2     1  UNL1        0.2266
     14 O          14.9408   36.3157    7.8266 O.2     1  UNL1       -0.2748
     15 N          13.9604   35.8471    9.9086 N.am    1  UNL1       -0.2839
     16 H          13.9196   35.1872   10.6381 H       1  UNL1        0.1549
     17 C          11.3244   41.8395    8.4284 C.ar    1  UNL1        0.0672
     18 C          12.5292   42.5559    8.4454 C.ar    1  UNL1        0.0176
     19 C          13.2309   42.7821    7.2580 C.ar    1  UNL1        0.0015
     20 C          12.7354   42.2874    6.0481 C.ar    1  UNL1        0.0001
     21 C          11.5397   41.5640    6.0257 C.ar    1  UNL1        0.0015
     22 C          10.8376   41.3370    7.2128 C.ar    1  UNL1        0.0176
     23 S           9.1844   43.9761    9.6308 S.3     1  UNL1       -0.0655
     24 C           8.0020   43.1822    8.5033 C.3     1  UNL1        0.1500
     25 C           6.6413   43.7710    8.6878 C.2     1  UNL1        0.2372
     26 C           4.1671   43.5295    9.0183 C.3     1  UNL1        0.1255
     27 C           3.2735   42.6218    9.8633 C.3     1  UNL1        0.1636
     28 C           4.5565   40.7914    9.6189 C.3     1  UNL1        0.1636
     29 C           5.6086   41.4772    8.7472 C.3     1  UNL1        0.1255
     30 O           6.5121   45.0253    8.6817 O.2     1  UNL1       -0.2739
     31 O           3.2847   41.3188    9.3365 O.3     1  UNL1       -0.3501
     32 N           5.4970   42.9296    8.8953 N.am    1  UNL1       -0.2737
@<TRIPOS>BOND
     1    12    13    1
     2    13    15   am
     3     7     8   ar
     4     9    10   ar
     5     9     1    1
     6    11     6   ar
     7     2    23    1
     8     2     5   ar
     9    24    23    1
    10    24    25    1
    11    25    32   am
    12    26    32    1
    13    26    27    1
    14    27    31    1
    15    28    31    1
    16    28    29    1
    17    29    32    1
    18    18    19   ar
    19    20    21   ar
    20    22    17   ar
    21    15     6    1
    22     3     4   ar
    23     5    17    1
    24     5     1   ar
    25    13    14    2
    26     6     7   ar
    27     8     9   ar
    28    10    11   ar
    29     1     3   ar
    30     2     4   ar
    31    25    30    2
    32    17    18   ar
    33    19    20   ar
    34    21    22   ar
    35    15    16    1
