@<TRIPOS>MOLECULE
MolPort-003-323-677 6804279 CSC027238687 CSSS00027238687 ChemDiv-D039-0111 MCULE-6769502420 PubChem-8087288 Z198974524 ZINC000006804279 ZINC06804279
 28 29 0 0 0
SMALL
GASTEIGER

@<TRIPOS>ATOM
      1 C           7.8294   41.7951    8.8468 C.2     1  UNL1        0.3092
      2 O           8.2683   41.3684    9.9489 O.2     1  UNL1       -0.2521
      3 N           6.4215   41.9312    8.6304 N.am    1  UNL1       -0.2551
      4 N           8.7278   42.1528    7.7890 N.am    1  UNL1       -0.2680
      5 H           6.1275   42.2686    7.7535 H       1  UNL1        0.1578
      6 H           8.3185   42.4788    6.9551 H       1  UNL1        0.1564
      7 C           3.5389   41.7054   10.7680 C.ar    1  UNL1        0.0857
      8 C           4.3338   40.6375   11.1674 C.ar    1  UNL1        0.0408
      9 C           4.0123   39.6568   12.2420 C.3     1  UNL1        0.0500
     10 C           5.4065   41.6145    9.5903 C.ar    1  UNL1        0.1085
     11 C           4.2391   42.3288    9.7510 C.ar    1  UNL1        0.0153
     12 C           3.8331   43.5339    8.9716 C.3     1  UNL1        0.0342
     13 N           5.4748   40.5787   10.4508 N.ar    1  UNL1       -0.3451
     14 H           6.2018   39.9205   10.5373 H       1  UNL1        0.1668
     15 C           2.2227   42.0985   11.3112 C.2     1  UNL1        0.3421
     16 O           1.1751   41.8942   10.6390 O.2     1  UNL1       -0.2449
     17 O           2.1408   42.6959   12.5707 O.3     1  UNL1       -0.4454
     18 C           0.6161   42.0178   14.2912 C.3     1  UNL1        0.0513
     19 C           0.8949   43.0051   13.1771 C.3     1  UNL1        0.2089
     20 C          10.1603   42.0859    7.8170 C.ar    1  UNL1        0.0517
     21 C          10.8967   42.3984    8.9686 C.ar    1  UNL1        0.0160
     22 C          12.2917   42.3217    8.9581 C.ar    1  UNL1        0.0158
     23 C          12.9765   41.9312    7.7961 C.ar    1  UNL1        0.0480
     24 C          12.2334   41.6195    6.6460 C.ar    1  UNL1        0.0158
     25 C          10.8380   41.6967    6.6581 C.ar    1  UNL1        0.0160
     26 C          15.1249   40.9105    8.6364 C.3     1  UNL1        0.1122
     27 C          15.2100   42.7096    6.9191 C.3     1  UNL1        0.1122
     28 N          14.4142   41.8518    7.7840 N.pl3   1  UNL1       -0.3041
@<TRIPOS>BOND
     1    18    19    1
     2    19    17    1
     3    15    17    1
     4    15     7    1
     5     8    13   ar
     6     9     8    1
     7    10     3    1
     8     1     4   am
     9    21    22   ar
    10    23    24   ar
    11    23    28    1
    12    25    20   ar
    13    26    28    1
    14    27    28    1
    15    11     7   ar
    16    12    11    1
    17    13    10   ar
    18     3     1   am
    19     4    20    1
    20    15    16    2
    21     7     8   ar
    22    10    11   ar
    23     1     2    2
    24    20    21   ar
    25    22    23   ar
    26    24    25   ar
    27    13    14    1
    28     3     5    1
    29     4     6    1
@<TRIPOS>MOLECULE
MolPort-003-323-677 6804279 CSC027238687 CSSS00027238687 ChemDiv-D039-0111 MCULE-6769502420 PubChem-8087288 Z198974524 ZINC000006804279 ZINC06804279
 28 29 0 0 0
SMALL
GASTEIGER

@<TRIPOS>ATOM
      1 C           6.8047   41.1980   10.0463 C.2     1  UNL1        0.3092
      2 O           7.2060   41.5780   11.1793 O.2     1  UNL1       -0.2521
      3 N           7.7431   40.8591    9.0204 N.am    1  UNL1       -0.2551
      4 N           5.4038   41.0968    9.7607 N.am    1  UNL1       -0.2680
      5 H           7.3812   40.5677    8.1525 H       1  UNL1        0.1578
      6 H           5.1596   40.7938    8.8564 H       1  UNL1        0.1564
      7 C          11.3020   41.2668    8.7085 C.ar    1  UNL1        0.0857
      8 C          11.1398   40.7164    9.9745 C.ar    1  UNL1        0.0408
      9 C          12.2295   40.3915   10.9373 C.3     1  UNL1        0.0500
     10 C           9.1679   40.9110    9.1582 C.ar    1  UNL1        0.1085
     11 C          10.0252   41.3883    8.1906 C.ar    1  UNL1        0.0153
     12 C           9.6311   41.9238    6.8556 C.3     1  UNL1        0.0342
     13 N           9.8384   40.4977   10.2526 N.ar    1  UNL1       -0.3451
     14 H           9.4592   40.1178   11.0779 H       1  UNL1        0.1668
     15 C          12.5683   41.6444    8.0482 C.2     1  UNL1        0.3421
     16 O          12.7416   42.8262    7.6427 O.2     1  UNL1       -0.2449
     17 O          13.5732   40.6903    7.8748 O.3     1  UNL1       -0.4454
     18 C          15.7284   41.5793    8.4306 C.3     1  UNL1        0.0513
     19 C          14.6582   40.5672    8.7821 C.3     1  UNL1        0.2089
     20 C           4.3202   41.3904   10.6533 C.ar    1  UNL1        0.0517
     21 C           3.9785   40.5386   11.7133 C.ar    1  UNL1        0.0160
     22 C           2.9162   40.8579   12.5627 C.ar    1  UNL1        0.0158
     23 C           2.1755   42.0349   12.3680 C.ar    1  UNL1        0.0480
     24 C           2.5225   42.8840   11.3047 C.ar    1  UNL1        0.0158
     25 C           3.5856   42.5631   10.4560 C.ar    1  UNL1        0.0160
     26 C           0.1576   41.3438   13.7150 C.3     1  UNL1        0.1122
     27 C           0.8554   43.7324   13.6869 C.3     1  UNL1        0.1122
     28 N           1.0803   42.3651   13.2427 N.pl3   1  UNL1       -0.3041
@<TRIPOS>BOND
     1    18    19    1
     2    19    17    1
     3    15    17    1
     4    15     7    1
     5     8    13   ar
     6     9     8    1
     7    10     3    1
     8     1     4   am
     9    21    22   ar
    10    23    24   ar
    11    23    28    1
    12    25    20   ar
    13    26    28    1
    14    27    28    1
    15    11     7   ar
    16    12    11    1
    17    13    10   ar
    18     3     1   am
    19     4    20    1
    20    15    16    2
    21     7     8   ar
    22    10    11   ar
    23     1     2    2
    24    20    21   ar
    25    22    23   ar
    26    24    25   ar
    27    13    14    1
    28     3     5    1
    29     4     6    1
@<TRIPOS>MOLECULE
MolPort-003-323-677 6804279 CSC027238687 CSSS00027238687 ChemDiv-D039-0111 MCULE-6769502420 PubChem-8087288 Z198974524 ZINC000006804279 ZINC06804279
 28 29 0 0 0
SMALL
GASTEIGER

@<TRIPOS>ATOM
      1 C          10.2434   41.5012    7.4744 C.2     1  UNL1        0.3092
      2 O          10.3083   42.4825    8.2633 O.2     1  UNL1       -0.2521
      3 N          11.3670   41.1482    6.6617 N.am    1  UNL1       -0.2551
      4 N           9.0464   40.7193    7.3741 N.am    1  UNL1       -0.2680
      5 H          11.2679   40.3741    6.0616 H       1  UNL1        0.1578
      6 H           9.0637   39.9674    6.7388 H       1  UNL1        0.1564
      7 C          14.6741   42.4524    7.2015 C.ar    1  UNL1        0.0857
      8 C          14.2074   43.1713    6.1073 C.ar    1  UNL1        0.0408
      9 C          14.9528   44.2288    5.3683 C.3     1  UNL1        0.0500
     10 C          12.6249   41.8335    6.6534 C.ar    1  UNL1        0.1085
     11 C          13.6468   41.5928    7.5460 C.ar    1  UNL1        0.0153
     12 C          13.6257   40.5979    8.6568 C.3     1  UNL1        0.0342
     13 N          12.9567   42.7963    5.7697 N.ar    1  UNL1       -0.3451
     14 H          12.4044   43.1498    5.0354 H       1  UNL1        0.1668
     15 C          15.9890   42.5757    7.8632 C.2     1  UNL1        0.3421
     16 O          16.5928   41.5442    8.2664 O.2     1  UNL1       -0.2449
     17 O          16.5624   43.8366    8.0406 O.3     1  UNL1       -0.4454
     18 C          17.9928   43.6293    6.1286 C.3     1  UNL1        0.0513
     19 C          17.8542   44.1523    7.5431 C.3     1  UNL1        0.2089
     20 C           7.8261   40.9165    8.1016 C.ar    1  UNL1        0.0517
     21 C           6.5692   40.7230    7.5112 C.ar    1  UNL1        0.0160
     22 C           5.4017   40.9248    8.2516 C.ar    1  UNL1        0.0158
     23 C           5.4692   41.3239    9.5963 C.ar    1  UNL1        0.0480
     24 C           6.7310   41.5161   10.1819 C.ar    1  UNL1        0.0158
     25 C           7.8979   41.3137    9.4398 C.ar    1  UNL1        0.0160
     26 C           3.3206   42.5802   10.0078 C.3     1  UNL1        0.1122
     27 C           3.9527   40.7026   11.5139 C.3     1  UNL1        0.1122
     28 N           4.2667   41.5322   10.3605 N.pl3   1  UNL1       -0.3041
@<TRIPOS>BOND
     1    18    19    1
     2    19    17    1
     3    15    17    1
     4    15     7    1
     5     8    13   ar
     6     9     8    1
     7    10     3    1
     8     1     4   am
     9    21    22   ar
    10    23    24   ar
    11    23    28    1
    12    25    20   ar
    13    26    28    1
    14    27    28    1
    15    11     7   ar
    16    12    11    1
    17    13    10   ar
    18     3     1   am
    19     4    20    1
    20    15    16    2
    21     7     8   ar
    22    10    11   ar
    23     1     2    2
    24    20    21   ar
    25    22    23   ar
    26    24    25   ar
    27    13    14    1
    28     3     5    1
    29     4     6    1
@<TRIPOS>MOLECULE
MolPort-003-323-677 6804279 CSC027238687 CSSS00027238687 ChemDiv-D039-0111 MCULE-6769502420 PubChem-8087288 Z198974524 ZINC000006804279 ZINC06804279
 28 29 0 0 0
SMALL
GASTEIGER

@<TRIPOS>ATOM
      1 C           9.8538   41.6390    9.5574 C.2     1  UNL1        0.3092
      2 O           9.7024   40.6458   10.3189 O.2     1  UNL1       -0.2521
      3 N           8.7333   42.4508    9.1924 N.am    1  UNL1       -0.2551
      4 N          11.1477   41.9768    9.0417 N.am    1  UNL1       -0.2680
      5 H           8.9020   43.2154    8.5956 H       1  UNL1        0.1578
      6 H          11.1951   42.7644    8.4530 H       1  UNL1        0.1564
      7 C           5.2074   42.4967    9.8960 C.ar    1  UNL1        0.0857
      8 C           5.6723   41.3905   10.5975 C.ar    1  UNL1        0.0408
      9 C           4.8500   40.4711   11.4333 C.3     1  UNL1        0.0500
     10 C           7.3855   42.2375    9.6278 C.ar    1  UNL1        0.1085
     11 C           6.3192   43.0356    9.2744 C.ar    1  UNL1        0.0153
     12 C           6.3771   44.2389    8.3950 C.3     1  UNL1        0.0342
     13 N           7.0015   41.2290   10.4363 N.ar    1  UNL1       -0.3451
     14 H           7.5698   40.5255   10.8255 H       1  UNL1        0.1668
     15 C           3.8196   42.9977    9.8253 C.2     1  UNL1        0.3421
     16 O           3.3295   43.3468    8.7167 O.2     1  UNL1       -0.2449
     17 O           3.0513   43.0831   10.9883 O.3     1  UNL1       -0.4454
     18 C           1.4815   42.4305   12.6777 C.3     1  UNL1        0.0513
     19 C           2.1853   42.0348   11.3964 C.3     1  UNL1        0.2089
     20 C          12.3807   41.2885    9.2928 C.ar    1  UNL1        0.0517
     21 C          12.5653   40.4833   10.4258 C.ar    1  UNL1        0.0160
     22 C          13.7810   39.8280   10.6370 C.ar    1  UNL1        0.0158
     23 C          14.8349   39.9655    9.7193 C.ar    1  UNL1        0.0480
     24 C          14.6440   40.7732    8.5865 C.ar    1  UNL1        0.0158
     25 C          13.4273   41.4281    8.3768 C.ar    1  UNL1        0.0160
     26 C          17.3303   40.0346   10.0831 C.3     1  UNL1        0.1122
     27 C          16.1599   37.8394   10.0153 C.3     1  UNL1        0.1122
     28 N          16.0883   39.2906    9.9358 N.pl3   1  UNL1       -0.3041
@<TRIPOS>BOND
     1    18    19    1
     2    19    17    1
     3    15    17    1
     4    15     7    1
     5     8    13   ar
     6     9     8    1
     7    10     3    1
     8     1     4   am
     9    21    22   ar
    10    23    24   ar
    11    23    28    1
    12    25    20   ar
    13    26    28    1
    14    27    28    1
    15    11     7   ar
    16    12    11    1
    17    13    10   ar
    18     3     1   am
    19     4    20    1
    20    15    16    2
    21     7     8   ar
    22    10    11   ar
    23     1     2    2
    24    20    21   ar
    25    22    23   ar
    26    24    25   ar
    27    13    14    1
    28     3     5    1
    29     4     6    1
@<TRIPOS>MOLECULE
MolPort-003-323-677 6804279 CSC027238687 CSSS00027238687 ChemDiv-D039-0111 MCULE-6769502420 PubChem-8087288 Z198974524 ZINC000006804279 ZINC06804279
 28 29 0 0 0
SMALL
GASTEIGER

@<TRIPOS>ATOM
      1 C          10.2447   40.9583    9.8013 C.2     1  UNL1        0.3092
      2 O          10.6911   41.7588    8.9358 O.2     1  UNL1       -0.2521
      3 N           8.8411   40.8913   10.0721 N.am    1  UNL1       -0.2551
      4 N          11.1299   40.0997   10.5316 N.am    1  UNL1       -0.2680
      5 H           8.5409   40.2505   10.7566 H       1  UNL1        0.1578
      6 H          10.7153   39.4993   11.1924 H       1  UNL1        0.1564
      7 C           5.9694   42.8046    9.0612 C.ar    1  UNL1        0.0857
      8 C           6.8035   42.8441    7.9500 C.ar    1  UNL1        0.0408
      9 C           6.5187   43.5368    6.6620 C.3     1  UNL1        0.0500
     10 C           7.8390   41.6841    9.4247 C.ar    1  UNL1        0.1085
     11 C           6.6459   42.0547   10.0062 C.ar    1  UNL1        0.0153
     12 C           6.1943   41.7034   11.3835 C.3     1  UNL1        0.0342
     13 N           7.9458   42.1611    8.1681 N.ar    1  UNL1       -0.3451
     14 H           8.6967   42.0373    7.5435 H       1  UNL1        0.1668
     15 C           4.6389   43.4292    9.2088 C.2     1  UNL1        0.3421
     16 O           4.4351   44.5935    8.7683 O.2     1  UNL1       -0.2449
     17 O           3.6074   42.7275    9.8361 O.3     1  UNL1       -0.4454
     18 C           3.3289   40.3833   10.2502 C.3     1  UNL1        0.0513
     19 C           3.0741   41.5289    9.2931 C.3     1  UNL1        0.2089
     20 C          12.5563   40.0229   10.4012 C.ar    1  UNL1        0.0517
     21 C          13.3540   39.3565   11.3422 C.ar    1  UNL1        0.0160
     22 C          14.7408   39.3024   11.1816 C.ar    1  UNL1        0.0158
     23 C          15.3560   39.9139   10.0773 C.ar    1  UNL1        0.0480
     24 C          14.5517   40.5798    9.1383 C.ar    1  UNL1        0.0158
     25 C          13.1646   40.6328    9.3003 C.ar    1  UNL1        0.0160
     26 C          17.5138   40.9493    9.2801 C.3     1  UNL1        0.1122
     27 C          17.5543   38.7109   10.3668 C.3     1  UNL1        0.1122
     28 N          16.7852   39.8589    9.9107 N.pl3   1  UNL1       -0.3041
@<TRIPOS>BOND
     1    18    19    1
     2    19    17    1
     3    15    17    1
     4    15     7    1
     5     8    13   ar
     6     9     8    1
     7    10     3    1
     8     1     4   am
     9    21    22   ar
    10    23    24   ar
    11    23    28    1
    12    25    20   ar
    13    26    28    1
    14    27    28    1
    15    11     7   ar
    16    12    11    1
    17    13    10   ar
    18     3     1   am
    19     4    20    1
    20    15    16    2
    21     7     8   ar
    22    10    11   ar
    23     1     2    2
    24    20    21   ar
    25    22    23   ar
    26    24    25   ar
    27    13    14    1
    28     3     5    1
    29     4     6    1
@<TRIPOS>MOLECULE
MolPort-003-323-677 6804279 CSC027238687 CSSS00027238687 ChemDiv-D039-0111 MCULE-6769502420 PubChem-8087288 Z198974524 ZINC000006804279 ZINC06804279
 28 29 0 0 0
SMALL
GASTEIGER

@<TRIPOS>ATOM
      1 C          10.5940   41.8480    7.8261 C.2     1  UNL1        0.3092
      2 O          10.7929   42.6224    8.8007 O.2     1  UNL1       -0.2521
      3 N           9.2948   41.2956    7.5919 N.am    1  UNL1       -0.2551
      4 N          11.6610   41.5044    6.9330 N.am    1  UNL1       -0.2680
      5 H           9.1892   40.6962    6.8181 H       1  UNL1        0.1578
      6 H          11.4368   40.8951    6.1930 H       1  UNL1        0.1564
      7 C           6.1322   42.2382    9.0198 C.ar    1  UNL1        0.0857
      8 C           6.7894   41.5948   10.0620 C.ar    1  UNL1        0.0408
      9 C           6.2548   41.3759   11.4355 C.3     1  UNL1        0.0500
     10 C           8.1362   41.5469    8.3958 C.ar    1  UNL1        0.1085
     11 C           7.0086   42.2020    7.9504 C.ar    1  UNL1        0.0153
     12 C           6.7982   42.7553    6.5814 C.3     1  UNL1        0.0342
     13 N           8.0131   41.1714    9.6850 N.ar    1  UNL1       -0.3451
     14 H           8.6747   40.6911   10.2334 H       1  UNL1        0.1668
     15 C           4.7823   42.8375    9.0425 C.2     1  UNL1        0.3421
     16 O           4.6458   44.0814    9.2011 O.2     1  UNL1       -0.2449
     17 O           3.6579   42.0241    8.8871 O.3     1  UNL1       -0.4454
     18 C           2.6773   42.0325   11.0740 C.3     1  UNL1        0.0513
     19 C           3.1885   41.1824    9.9297 C.3     1  UNL1        0.2089
     20 C          13.0210   41.9547    7.0037 C.ar    1  UNL1        0.0517
     21 C          13.9511   41.3760    7.8789 C.ar    1  UNL1        0.0160
     22 C          15.2679   41.8413    7.9197 C.ar    1  UNL1        0.0158
     23 C          15.6792   42.8940    7.0863 C.ar    1  UNL1        0.0480
     24 C          14.7430   43.4694    6.2119 C.ar    1  UNL1        0.0158
     25 C          13.4263   43.0027    6.1723 C.ar    1  UNL1        0.0160
     26 C          17.7136   43.8253    5.9212 C.3     1  UNL1        0.1122
     27 C          17.7802   43.4270    8.3768 C.3     1  UNL1        0.1122
     28 N          17.0360   43.3744    7.1275 N.pl3   1  UNL1       -0.3041
@<TRIPOS>BOND
     1    18    19    1
     2    19    17    1
     3    15    17    1
     4    15     7    1
     5     8    13   ar
     6     9     8    1
     7    10     3    1
     8     1     4   am
     9    21    22   ar
    10    23    24   ar
    11    23    28    1
    12    25    20   ar
    13    26    28    1
    14    27    28    1
    15    11     7   ar
    16    12    11    1
    17    13    10   ar
    18     3     1   am
    19     4    20    1
    20    15    16    2
    21     7     8   ar
    22    10    11   ar
    23     1     2    2
    24    20    21   ar
    25    22    23   ar
    26    24    25   ar
    27    13    14    1
    28     3     5    1
    29     4     6    1
@<TRIPOS>MOLECULE
MolPort-003-323-677 6804279 CSC027238687 CSSS00027238687 ChemDiv-D039-0111 MCULE-6769502420 PubChem-8087288 Z198974524 ZINC000006804279 ZINC06804279
 28 29 0 0 0
SMALL
GASTEIGER

@<TRIPOS>ATOM
      1 C          10.1413   41.2412    8.9994 C.2     1  UNL1        0.3092
      2 O          10.0703   40.6918   10.1319 O.2     1  UNL1       -0.2521
      3 N           8.9872   41.8550    8.4172 N.am    1  UNL1       -0.2551
      4 N          11.3758   41.2636    8.2716 N.am    1  UNL1       -0.2680
      5 H           9.0926   42.2711    7.5312 H       1  UNL1        0.1578
      6 H          11.3613   41.7088    7.3937 H       1  UNL1        0.1564
      7 C           5.5927   42.4755    9.4281 C.ar    1  UNL1        0.0857
      8 C           6.0448   41.5312   10.3423 C.ar    1  UNL1        0.0408
      9 C           5.2570   40.9469   11.4639 C.3     1  UNL1        0.0500
     10 C           7.6905   41.9112    9.0232 C.ar    1  UNL1        0.1085
     11 C           6.6608   42.7137    8.5821 C.ar    1  UNL1        0.0153
     12 C           6.7117   43.6477    7.4205 C.3     1  UNL1        0.0342
     13 N           7.3251   41.1842   10.0985 N.ar    1  UNL1       -0.3451
     14 H           7.8750   40.5386   10.5984 H       1  UNL1        0.1668
     15 C           4.2548   43.0986    9.3671 C.2     1  UNL1        0.3421
     16 O           3.4960   43.0659   10.3742 O.2     1  UNL1       -0.2449
     17 O           3.8323   43.7244    8.1923 O.3     1  UNL1       -0.4454
     18 C           2.5011   45.4484    7.1923 C.3     1  UNL1        0.0513
     19 C           3.6651   45.1317    8.1080 C.3     1  UNL1        0.2089
     20 C          12.6301   40.7057    8.6873 C.ar    1  UNL1        0.0517
     21 C          13.8538   41.3186    8.3826 C.ar    1  UNL1        0.0160
     22 C          15.0560   40.7455    8.8047 C.ar    1  UNL1        0.0158
     23 C          15.0572   39.5488    9.5393 C.ar    1  UNL1        0.0480
     24 C          13.8284   38.9397    9.8414 C.ar    1  UNL1        0.0158
     25 C          12.6267   39.5144    9.4185 C.ar    1  UNL1        0.0160
     26 C          16.5060   37.5184    9.9165 C.3     1  UNL1        0.1122
     27 C          17.3828   39.7758   10.4898 C.3     1  UNL1        0.1122
     28 N          16.2956   38.9571    9.9750 N.pl3   1  UNL1       -0.3041
@<TRIPOS>BOND
     1    18    19    1
     2    19    17    1
     3    15    17    1
     4    15     7    1
     5     8    13   ar
     6     9     8    1
     7    10     3    1
     8     1     4   am
     9    21    22   ar
    10    23    24   ar
    11    23    28    1
    12    25    20   ar
    13    26    28    1
    14    27    28    1
    15    11     7   ar
    16    12    11    1
    17    13    10   ar
    18     3     1   am
    19     4    20    1
    20    15    16    2
    21     7     8   ar
    22    10    11   ar
    23     1     2    2
    24    20    21   ar
    25    22    23   ar
    26    24    25   ar
    27    13    14    1
    28     3     5    1
    29     4     6    1
@<TRIPOS>MOLECULE
MolPort-003-323-677 6804279 CSC027238687 CSSS00027238687 ChemDiv-D039-0111 MCULE-6769502420 PubChem-8087288 Z198974524 ZINC000006804279 ZINC06804279
 28 29 0 0 0
SMALL
GASTEIGER

@<TRIPOS>ATOM
      1 C           9.3099   39.6581    5.2868 C.2     1  UNL1        0.3092
      2 O           9.2432   38.9477    6.3261 O.2     1  UNL1       -0.2521
      3 N           8.8134   41.0002    5.2924 N.am    1  UNL1       -0.2551
      4 N           9.8827   39.1394    4.0798 N.am    1  UNL1       -0.2680
      5 H           8.8879   41.5152    4.4567 H       1  UNL1        0.1578
      6 H           9.9034   39.7472    3.3056 H       1  UNL1        0.1564
      7 C           6.7779   42.1809    8.0112 C.ar    1  UNL1        0.0857
      8 C           7.9105   42.9845    8.0701 C.ar    1  UNL1        0.0408
      9 C           8.1663   44.0710    9.0571 C.3     1  UNL1        0.0500
     10 C           8.2166   41.6526    6.4194 C.ar    1  UNL1        0.1085
     11 C           6.9850   41.3258    6.9440 C.ar    1  UNL1        0.0153
     12 C           6.0726   40.2580    6.4422 C.3     1  UNL1        0.0342
     13 N           8.7911   42.6650    7.0999 N.ar    1  UNL1       -0.3451
     14 H           9.6659   43.0817    6.9259 H       1  UNL1        0.1668
     15 C           5.5973   42.2255    8.8979 C.2     1  UNL1        0.3421
     16 O           4.7249   43.1234    8.7438 O.2     1  UNL1       -0.2449
     17 O           5.4489   41.2710    9.9064 O.3     1  UNL1       -0.4454
     18 C           3.1374   41.1550    9.2839 C.3     1  UNL1        0.0513
     19 C           4.1720   40.8271   10.3400 C.3     1  UNL1        0.2089
     20 C          10.4290   37.8282    3.8807 C.ar    1  UNL1        0.0517
     21 C          11.8032   37.5712    3.9883 C.ar    1  UNL1        0.0160
     22 C          12.2989   36.2805    3.7875 C.ar    1  UNL1        0.0158
     23 C          11.4299   35.2226    3.4752 C.ar    1  UNL1        0.0480
     24 C          10.0547   35.4863    3.3689 C.ar    1  UNL1        0.0158
     25 C           9.5605   36.7780    3.5701 C.ar    1  UNL1        0.0160
     26 C          11.1831   32.9030    2.5148 C.3     1  UNL1        0.1122
     27 C          13.2300   33.4863    3.8043 C.3     1  UNL1        0.1122
     28 N          11.9396   33.8919    3.2681 N.pl3   1  UNL1       -0.3041
@<TRIPOS>BOND
     1    18    19    1
     2    19    17    1
     3    15    17    1
     4    15     7    1
     5     8    13   ar
     6     9     8    1
     7    10     3    1
     8     1     4   am
     9    21    22   ar
    10    23    24   ar
    11    23    28    1
    12    25    20   ar
    13    26    28    1
    14    27    28    1
    15    11     7   ar
    16    12    11    1
    17    13    10   ar
    18     3     1   am
    19     4    20    1
    20    15    16    2
    21     7     8   ar
    22    10    11   ar
    23     1     2    2
    24    20    21   ar
    25    22    23   ar
    26    24    25   ar
    27    13    14    1
    28     3     5    1
    29     4     6    1
@<TRIPOS>MOLECULE
MolPort-003-323-677 6804279 CSC027238687 CSSS00027238687 ChemDiv-D039-0111 MCULE-6769502420 PubChem-8087288 Z198974524 ZINC000006804279 ZINC06804279
 28 29 0 0 0
SMALL
GASTEIGER

@<TRIPOS>ATOM
      1 C          10.8158   41.5089    7.7296 C.2     1  UNL1        0.3092
      2 O          10.9079   42.2752    8.7264 O.2     1  UNL1       -0.2521
      3 N          11.9747   40.8460    7.2146 N.am    1  UNL1       -0.2551
      4 N           9.5521   41.2848    7.0916 N.am    1  UNL1       -0.2680
      5 H          11.8522   40.2575    6.4349 H       1  UNL1        0.1578
      6 H           9.5512   40.6749    6.3187 H       1  UNL1        0.1564
      7 C          15.3602   41.6966    8.0773 C.ar    1  UNL1        0.0857
      8 C          15.0588   40.6339    8.9211 C.ar    1  UNL1        0.0408
      9 C          15.9710   40.0287    9.9317 C.3     1  UNL1        0.0500
     10 C          13.2992   40.9719    7.7454 C.ar    1  UNL1        0.1085
     11 C          14.2196   41.9067    7.3236 C.ar    1  UNL1        0.0153
     12 C          14.0060   42.9316    6.2614 C.3     1  UNL1        0.0342
     13 N          13.8015   40.1888    8.7214 N.ar    1  UNL1       -0.3451
     14 H          13.3476   39.4503    9.1882 H       1  UNL1        0.1668
     15 C          16.6295   42.4477    7.9964 C.2     1  UNL1        0.3421
     16 O          17.7284   41.8295    7.9594 O.2     1  UNL1       -0.2449
     17 O          16.6101   43.8436    7.9603 O.3     1  UNL1       -0.4454
     18 C          17.5749   43.8303    5.7664 C.3     1  UNL1        0.0513
     19 C          16.6773   44.5655    6.7396 C.3     1  UNL1        0.2089
     20 C           8.2888   41.8551    7.4602 C.ar    1  UNL1        0.0517
     21 C           7.6854   42.8737    6.7088 C.ar    1  UNL1        0.0160
     22 C           6.4536   43.4049    7.0990 C.ar    1  UNL1        0.0158
     23 C           5.8020   42.9278    8.2478 C.ar    1  UNL1        0.0480
     24 C           6.4114   41.9076    8.9961 C.ar    1  UNL1        0.0158
     25 C           7.6436   41.3773    8.6044 C.ar    1  UNL1        0.0160
     26 C           4.0014   44.6820    8.0362 C.3     1  UNL1        0.1122
     27 C           3.7329   42.8402    9.6881 C.3     1  UNL1        0.1122
     28 N           4.5324   43.4746    8.6510 N.pl3   1  UNL1       -0.3041
@<TRIPOS>BOND
     1    18    19    1
     2    19    17    1
     3    15    17    1
     4    15     7    1
     5     8    13   ar
     6     9     8    1
     7    10     3    1
     8     1     4   am
     9    21    22   ar
    10    23    24   ar
    11    23    28    1
    12    25    20   ar
    13    26    28    1
    14    27    28    1
    15    11     7   ar
    16    12    11    1
    17    13    10   ar
    18     3     1   am
    19     4    20    1
    20    15    16    2
    21     7     8   ar
    22    10    11   ar
    23     1     2    2
    24    20    21   ar
    25    22    23   ar
    26    24    25   ar
    27    13    14    1
    28     3     5    1
    29     4     6    1
@<TRIPOS>MOLECULE
MolPort-003-323-677 6804279 CSC027238687 CSSS00027238687 ChemDiv-D039-0111 MCULE-6769502420 PubChem-8087288 Z198974524 ZINC000006804279 ZINC06804279
 28 29 0 0 0
SMALL
GASTEIGER

@<TRIPOS>ATOM
      1 C          11.2341   41.7856    7.6145 C.2     1  UNL1        0.3092
      2 O          11.3805   42.4679    8.6644 O.2     1  UNL1       -0.2521
      3 N          12.3448   41.5450    6.7449 N.am    1  UNL1       -0.2551
      4 N           9.9559   41.2370    7.2690 N.am    1  UNL1       -0.2680
      5 H          12.1807   41.0065    5.9373 H       1  UNL1        0.1578
      6 H           9.9117   40.7145    6.4358 H       1  UNL1        0.1564
      7 C          15.7070   42.2629    7.7982 C.ar    1  UNL1        0.0857
      8 C          15.4864   43.1570    6.7571 C.ar    1  UNL1        0.0408
      9 C          16.4589   44.1604    6.2400 C.3     1  UNL1        0.0500
     10 C          13.6768   42.0267    6.9582 C.ar    1  UNL1        0.1085
     11 C          14.5348   41.5390    7.9199 C.ar    1  UNL1        0.0153
     12 C          14.2358   40.4466    8.8903 C.3     1  UNL1        0.0342
     13 N          14.2481   43.0158    6.2417 N.ar    1  UNL1       -0.3451
     14 H          13.8472   43.5257    5.5011 H       1  UNL1        0.1668
     15 C          16.9326   42.1125    8.6090 C.2     1  UNL1        0.3421
     16 O          17.4773   43.1264    9.1250 O.2     1  UNL1       -0.2449
     17 O          17.4861   40.8452    8.8035 O.3     1  UNL1       -0.4454
     18 C          18.5489   39.1637   10.1405 C.3     1  UNL1        0.0513
     19 C          17.4355   40.1872   10.0605 C.3     1  UNL1        0.2089
     20 C           8.7343   41.3689    8.0090 C.ar    1  UNL1        0.0517
     21 C           8.7190   41.7640    9.3542 C.ar    1  UNL1        0.0160
     22 C           7.5090   41.8816   10.0428 C.ar    1  UNL1        0.0158
     23 C           6.2917   41.6063    9.3992 C.ar    1  UNL1        0.0480
     24 C           6.3136   41.2112    8.0518 C.ar    1  UNL1        0.0158
     25 C           7.5248   41.0940    7.3645 C.ar    1  UNL1        0.0160
     26 C           4.7564   40.9065   11.2745 C.3     1  UNL1        0.1122
     27 C           4.0243   42.6746    9.6836 C.3     1  UNL1        0.1122
     28 N           5.0440   41.7272   10.1078 N.pl3   1  UNL1       -0.3041
@<TRIPOS>BOND
     1    18    19    1
     2    19    17    1
     3    15    17    1
     4    15     7    1
     5     8    13   ar
     6     9     8    1
     7    10     3    1
     8     1     4   am
     9    21    22   ar
    10    23    24   ar
    11    23    28    1
    12    25    20   ar
    13    26    28    1
    14    27    28    1
    15    11     7   ar
    16    12    11    1
    17    13    10   ar
    18     3     1   am
    19     4    20    1
    20    15    16    2
    21     7     8   ar
    22    10    11   ar
    23     1     2    2
    24    20    21   ar
    25    22    23   ar
    26    24    25   ar
    27    13    14    1
    28     3     5    1
    29     4     6    1
