@<TRIPOS>MOLECULE
MolPort-020-298-618 MCULE-6502622054 PubChem-110269774
 30 33 0 0 0
SMALL
GASTEIGER

@<TRIPOS>ATOM
      1 C          13.5095   40.4277    9.2752 C.ar    1  UNL1        0.1339
      2 C          14.0263   39.5954   10.2774 C.ar    1  UNL1        0.0345
      3 C          13.3036   39.4023   11.4546 C.ar    1  UNL1        0.0041
      4 C          12.0745   40.0376   11.6259 C.ar    1  UNL1        0.0149
      5 C          11.5820   40.8647   10.6073 C.ar    1  UNL1        0.0617
      6 N          12.3070   41.0358    9.4685 N.ar    1  UNL1       -0.2348
      7 C          10.2680   41.5645   10.7477 C.3     1  UNL1        0.0602
      8 C           9.6102   41.2402   12.0907 C.3     1  UNL1        0.0094
      9 C           8.2818   41.9809   12.2231 C.3     1  UNL1        0.0220
     10 C           7.3568   41.6098   11.0675 C.3     1  UNL1        0.0937
     11 C           9.3322   41.2116    9.5912 C.3     1  UNL1        0.0996
     12 C           7.5544   42.8196    8.8438 C.2     1  UNL1        0.2505
     13 N           8.0363   41.8536    9.7966 N.am    1  UNL1       -0.2757
     14 O           8.3720   43.3452    8.0387 O.2     1  UNL1       -0.2699
     15 C           6.1281   43.2143    8.7661 C.ar    1  UNL1        0.0727
     16 C           5.7348   44.4564    8.2494 C.ar    1  UNL1        0.1034
     17 C           3.4508   43.9742    8.6808 C.ar    1  UNL1        0.0989
     18 C           3.7928   42.7314    9.2154 C.ar    1  UNL1        0.0208
     19 C           5.1362   42.3565    9.2596 C.ar    1  UNL1        0.0077
     20 N           4.4205   44.8050    8.2142 N.ar    1  UNL1       -0.2422
     21 N          14.2119   40.6600    8.0459 N.pl3   1  UNL1       -0.2680
     22 H          14.2166   39.9169    7.4001 H       1  UNL1        0.1565
     23 C          14.3513   44.6572    5.2668 C.3     1  UNL1        0.0522
     24 C          14.9787   43.7926    6.2997 C.ar    1  UNL1        0.0634
     25 C          16.2080   44.1472    6.8522 C.ar    1  UNL1        0.0296
     26 C          16.7637   43.3105    7.8180 C.ar    1  UNL1        0.0634
     27 C          14.9078   41.8492    7.6489 C.ar    1  UNL1        0.2211
     28 C          18.0729   43.6513    8.4328 C.3     1  UNL1        0.0522
     29 N          16.1083   42.1829    8.1974 N.ar    1  UNL1       -0.2179
     30 N          14.3540   42.6563    6.7055 N.ar    1  UNL1       -0.2179
@<TRIPOS>BOND
     1    23    24    1
     2    24    30   ar
     3    25    26   ar
     4    27    29   ar
     5    27    21    1
     6     1     6   ar
     7     2     3   ar
     8     4     5   ar
     9     7     5    1
    10     7     8    1
    11     8     9    1
    12     9    10    1
    13    10    13    1
    14    11    13    1
    15    11     7    1
    16    12    15    1
    17    16    20   ar
    18    17    18   ar
    19    19    15   ar
    20    28    26    1
    21    21     1    1
    22    13    12   am
    23    24    25   ar
    24    26    29   ar
    25    27    30   ar
    26     1     2   ar
    27     3     4   ar
    28     5     6   ar
    29    12    14    2
    30    15    16   ar
    31    17    20   ar
    32    18    19   ar
    33    21    22    1
@<TRIPOS>MOLECULE
MolPort-020-298-618 MCULE-6502622054 PubChem-110269774
 30 33 0 0 0
SMALL
GASTEIGER

@<TRIPOS>ATOM
      1 C          13.8817   39.8203    9.3721 C.ar    1  UNL1        0.1339
      2 C          13.7195   38.4285    9.4038 C.ar    1  UNL1        0.0345
      3 C          12.4551   37.8862    9.6328 C.ar    1  UNL1        0.0041
      4 C          11.3633   38.7309    9.8284 C.ar    1  UNL1        0.0149
      5 C          11.5547   40.1187    9.7919 C.ar    1  UNL1        0.0617
      6 N          12.7987   40.6218    9.5663 N.ar    1  UNL1       -0.2348
      7 C          10.4121   41.0618    9.9950 C.3     1  UNL1        0.0602
      8 C           9.9657   41.0816   11.4585 C.3     1  UNL1        0.0094
      9 C           8.8140   42.0658   11.6483 C.3     1  UNL1        0.0220
     10 C           7.6493   41.6927   10.7357 C.3     1  UNL1        0.0937
     11 C           9.2395   40.7084    9.0796 C.3     1  UNL1        0.0996
     12 C           7.6268   42.4769    8.3207 C.2     1  UNL1        0.2505
     13 N           8.1175   41.6024    9.3539 N.am    1  UNL1       -0.2757
     14 O           8.3568   42.7084    7.3175 O.2     1  UNL1       -0.2699
     15 C           6.2886   43.1102    8.3863 C.ar    1  UNL1        0.0727
     16 C           5.2494   42.5586    9.1481 C.ar    1  UNL1        0.1034
     17 C           3.7588   44.2713    8.4551 C.ar    1  UNL1        0.0989
     18 C           4.7573   44.8520    7.6722 C.ar    1  UNL1        0.0208
     19 C           6.0225   44.2644    7.6377 C.ar    1  UNL1        0.0077
     20 N           4.0223   43.1452    9.1696 N.ar    1  UNL1       -0.2422
     21 N          15.1599   40.4294    9.1404 N.pl3   1  UNL1       -0.2680
     22 H          15.9277   40.0181    9.5993 H       1  UNL1        0.1565
     23 C          18.2511   43.9861    7.9097 C.3     1  UNL1        0.0522
     24 C          16.9485   43.2976    7.7173 C.ar    1  UNL1        0.0634
     25 C          16.0494   43.7625    6.7595 C.ar    1  UNL1        0.0296
     26 C          14.8384   43.0899    6.6091 C.ar    1  UNL1        0.0634
     27 C          15.4485   41.5679    8.3177 C.ar    1  UNL1        0.2211
     28 C          13.8511   43.5525    5.5995 C.3     1  UNL1        0.0522
     29 N          14.5604   42.0108    7.3859 N.ar    1  UNL1       -0.2179
     30 N          16.6339   42.2146    8.4752 N.ar    1  UNL1       -0.2179
@<TRIPOS>BOND
     1    23    24    1
     2    24    30   ar
     3    25    26   ar
     4    27    29   ar
     5    27    21    1
     6     1     6   ar
     7     2     3   ar
     8     4     5   ar
     9     7     5    1
    10     7     8    1
    11     8     9    1
    12     9    10    1
    13    10    13    1
    14    11    13    1
    15    11     7    1
    16    12    15    1
    17    16    20   ar
    18    17    18   ar
    19    19    15   ar
    20    28    26    1
    21    21     1    1
    22    13    12   am
    23    24    25   ar
    24    26    29   ar
    25    27    30   ar
    26     1     2   ar
    27     3     4   ar
    28     5     6   ar
    29    12    14    2
    30    15    16   ar
    31    17    20   ar
    32    18    19   ar
    33    21    22    1
@<TRIPOS>MOLECULE
MolPort-020-298-618 MCULE-6502622054 PubChem-110269774
 30 33 0 0 0
SMALL
GASTEIGER

@<TRIPOS>ATOM
      1 C           3.2037   41.9075   11.6985 C.ar    1  UNL1        0.1339
      2 C           2.6494   42.4326   10.5233 C.ar    1  UNL1        0.0345
      3 C           3.4548   42.6059    9.3978 C.ar    1  UNL1        0.0041
      4 C           4.8035   42.2562    9.4499 C.ar    1  UNL1        0.0149
      5 C           5.3312   41.7337   10.6384 C.ar    1  UNL1        0.0617
      6 N           4.5234   41.5746   11.7218 N.ar    1  UNL1       -0.2348
      7 C           6.7715   41.3440   10.7387 C.3     1  UNL1        0.0602
      8 C           7.3670   41.7712   12.0820 C.3     1  UNL1        0.0094
      9 C           8.8303   41.3452   12.1728 C.3     1  UNL1        0.0220
     10 C           9.6245   41.9464   11.0167 C.3     1  UNL1        0.0937
     11 C           7.5803   41.9299    9.5809 C.3     1  UNL1        0.0996
     12 C           9.6580   40.7843    8.7593 C.2     1  UNL1        0.2505
     13 N           8.9911   41.5907    9.7483 N.am    1  UNL1       -0.2757
     14 O           8.9630   40.1103    7.9496 O.2     1  UNL1       -0.2699
     15 C          11.1346   40.7230    8.6496 C.ar    1  UNL1        0.0727
     16 C          11.8707   39.6649    9.2002 C.ar    1  UNL1        0.1034
     17 C          13.9135   40.6461    8.4937 C.ar    1  UNL1        0.0989
     18 C          13.2266   41.7272    7.9398 C.ar    1  UNL1        0.0208
     19 C          11.8342   41.7633    8.0237 C.ar    1  UNL1        0.0077
     20 N          13.2277   39.6464    9.1088 N.ar    1  UNL1       -0.2422
     21 N           2.4197   41.7091   12.8836 N.pl3   1  UNL1       -0.2680
     22 H           2.7362   41.0127   13.5034 H       1  UNL1        0.1565
     23 C           0.3757   45.7260   14.7293 C.3     1  UNL1        0.0522
     24 C           0.2319   44.3583   14.1665 C.ar    1  UNL1        0.0634
     25 C          -1.0335   43.7915   14.0275 C.ar    1  UNL1        0.0296
     26 C          -1.1268   42.5070   13.4956 C.ar    1  UNL1        0.0634
     27 C           1.2284   42.4076   13.2698 C.ar    1  UNL1        0.2211
     28 C          -2.4569   41.8654   13.3302 C.3     1  UNL1        0.0522
     29 N          -0.0013   41.8412   13.1281 N.ar    1  UNL1       -0.2179
     30 N           1.3342   43.6603   13.7874 N.ar    1  UNL1       -0.2179
@<TRIPOS>BOND
     1    23    24    1
     2    24    30   ar
     3    25    26   ar
     4    27    29   ar
     5    27    21    1
     6     1     6   ar
     7     2     3   ar
     8     4     5   ar
     9     7     5    1
    10     7     8    1
    11     8     9    1
    12     9    10    1
    13    10    13    1
    14    11    13    1
    15    11     7    1
    16    12    15    1
    17    16    20   ar
    18    17    18   ar
    19    19    15   ar
    20    28    26    1
    21    21     1    1
    22    13    12   am
    23    24    25   ar
    24    26    29   ar
    25    27    30   ar
    26     1     2   ar
    27     3     4   ar
    28     5     6   ar
    29    12    14    2
    30    15    16   ar
    31    17    20   ar
    32    18    19   ar
    33    21    22    1
@<TRIPOS>MOLECULE
MolPort-020-298-618 MCULE-6502622054 PubChem-110269774
 30 33 0 0 0
SMALL
GASTEIGER

@<TRIPOS>ATOM
      1 C          14.2126   40.4168    9.5718 C.ar    1  UNL1        0.1339
      2 C          14.2484   39.4805   10.6140 C.ar    1  UNL1        0.0345
      3 C          13.1195   39.2918   11.4112 C.ar    1  UNL1        0.0041
      4 C          11.9655   40.0348   11.1662 C.ar    1  UNL1        0.0149
      5 C          11.9581   40.9645   10.1175 C.ar    1  UNL1        0.0617
      6 N          13.0729   41.1289    9.3547 N.ar    1  UNL1       -0.2348
      7 C          10.7422   41.7818    9.8181 C.3     1  UNL1        0.0602
      8 C          10.8161   43.1511   10.4972 C.3     1  UNL1        0.0094
      9 C           9.5767   43.9770   10.1614 C.3     1  UNL1        0.0220
     10 C           8.3168   43.2309   10.5909 C.3     1  UNL1        0.0937
     11 C           9.4691   41.0436   10.2328 C.3     1  UNL1        0.0996
     12 C           7.2926   41.4826    9.0604 C.2     1  UNL1        0.2505
     13 N           8.3082   41.8970    9.9932 N.am    1  UNL1       -0.2757
     14 O           7.5622   40.5752    8.2257 O.2     1  UNL1       -0.2699
     15 C           5.9350   42.0767    9.0497 C.ar    1  UNL1        0.0727
     16 C           5.7247   43.4278    8.7418 C.ar    1  UNL1        0.1034
     17 C           3.3879   43.2006    9.0922 C.ar    1  UNL1        0.0989
     18 C           3.5468   41.8530    9.4176 C.ar    1  UNL1        0.0208
     19 C           4.8256   41.2950    9.3987 C.ar    1  UNL1        0.0077
     20 N           4.4709   43.9546    8.7654 N.ar    1  UNL1       -0.2422
     21 N          15.3454   40.6494    8.7226 N.pl3   1  UNL1       -0.2680
     22 H          15.9711   39.8969    8.6156 H       1  UNL1        0.1565
     23 C          18.5834   44.1605    7.7694 C.3     1  UNL1        0.0522
     24 C          17.2430   43.5590    7.5463 C.ar    1  UNL1        0.0634
     25 C          16.3460   44.1629    6.6673 C.ar    1  UNL1        0.0296
     26 C          15.0990   43.5685    6.4849 C.ar    1  UNL1        0.0634
     27 C          15.6718   41.8512    8.0116 C.ar    1  UNL1        0.2211
     28 C          14.1125   44.1796    5.5566 C.3     1  UNL1        0.0522
     29 N          14.7852   42.4300    7.1559 N.ar    1  UNL1       -0.2179
     30 N          16.8920   42.4204    8.1992 N.ar    1  UNL1       -0.2179
@<TRIPOS>BOND
     1    23    24    1
     2    24    30   ar
     3    25    26   ar
     4    27    29   ar
     5    27    21    1
     6     1     6   ar
     7     2     3   ar
     8     4     5   ar
     9     7     5    1
    10     7     8    1
    11     8     9    1
    12     9    10    1
    13    10    13    1
    14    11    13    1
    15    11     7    1
    16    12    15    1
    17    16    20   ar
    18    17    18   ar
    19    19    15   ar
    20    28    26    1
    21    21     1    1
    22    13    12   am
    23    24    25   ar
    24    26    29   ar
    25    27    30   ar
    26     1     2   ar
    27     3     4   ar
    28     5     6   ar
    29    12    14    2
    30    15    16   ar
    31    17    20   ar
    32    18    19   ar
    33    21    22    1
@<TRIPOS>MOLECULE
MolPort-020-298-618 MCULE-6502622054 PubChem-110269774
 30 33 0 0 0
SMALL
GASTEIGER

@<TRIPOS>ATOM
      1 C           7.9087   40.5039    8.0206 C.ar    1  UNL1        0.1339
      2 C           7.3132   40.0051    6.8541 C.ar    1  UNL1        0.0345
      3 C           8.1161   39.6062    5.7857 C.ar    1  UNL1        0.0041
      4 C           9.5032   39.7065    5.8854 C.ar    1  UNL1        0.0149
      5 C          10.0715   40.2093    7.0636 C.ar    1  UNL1        0.0617
      6 N           9.2653   40.5911    8.0912 N.ar    1  UNL1       -0.2348
      7 C          11.5541   40.3330    7.2147 C.3     1  UNL1        0.0602
      8 C          12.0745   39.4172    8.3248 C.3     1  UNL1        0.0094
      9 C          13.5911   39.5423    8.4480 C.3     1  UNL1        0.0220
     10 C          13.9774   40.9929    8.7220 C.3     1  UNL1        0.0937
     11 C          11.9595   41.7833    7.4794 C.3     1  UNL1        0.0996
     12 C          14.2228   42.6274    6.7944 C.2     1  UNL1        0.2505
     13 N          13.4026   41.8571    7.6927 N.am    1  UNL1       -0.2757
     14 O          13.7581   42.9498    5.6660 O.2     1  UNL1       -0.2699
     15 C          15.5932   43.0658    7.1495 C.ar    1  UNL1        0.0727
     16 C          16.1510   44.2387    6.6224 C.ar    1  UNL1        0.1034
     17 C          18.1910   43.8504    7.7724 C.ar    1  UNL1        0.0989
     18 C          17.6848   42.6680    8.3137 C.ar    1  UNL1        0.0208
     19 C          16.3837   42.2768    7.9956 C.ar    1  UNL1        0.0077
     20 N          17.4211   44.6043    6.9436 N.ar    1  UNL1       -0.2422
     21 N           7.1291   40.9276    9.1481 N.pl3   1  UNL1       -0.2680
     22 H           7.4026   40.5723   10.0246 H       1  UNL1        0.1565
     23 C           2.6938   41.9934   10.8545 C.3     1  UNL1        0.0522
     24 C           3.8421   42.3293    9.9733 C.ar    1  UNL1        0.0634
     25 C           3.7983   43.4720    9.1769 C.ar    1  UNL1        0.0296
     26 C           4.8947   43.7527    8.3642 C.ar    1  UNL1        0.0634
     27 C           5.9977   41.8085    9.1461 C.ar    1  UNL1        0.2211
     28 C           4.8893   44.9611    7.4993 C.3     1  UNL1        0.0522
     29 N           5.9689   42.9215    8.3627 N.ar    1  UNL1       -0.2179
     30 N           4.9348   41.5223    9.9439 N.ar    1  UNL1       -0.2179
@<TRIPOS>BOND
     1    23    24    1
     2    24    30   ar
     3    25    26   ar
     4    27    29   ar
     5    27    21    1
     6     1     6   ar
     7     2     3   ar
     8     4     5   ar
     9     7     5    1
    10     7     8    1
    11     8     9    1
    12     9    10    1
    13    10    13    1
    14    11    13    1
    15    11     7    1
    16    12    15    1
    17    16    20   ar
    18    17    18   ar
    19    19    15   ar
    20    28    26    1
    21    21     1    1
    22    13    12   am
    23    24    25   ar
    24    26    29   ar
    25    27    30   ar
    26     1     2   ar
    27     3     4   ar
    28     5     6   ar
    29    12    14    2
    30    15    16   ar
    31    17    20   ar
    32    18    19   ar
    33    21    22    1
@<TRIPOS>MOLECULE
MolPort-020-298-618 MCULE-6502622054 PubChem-110269774
 30 33 0 0 0
SMALL
GASTEIGER

@<TRIPOS>ATOM
      1 C          16.8280   42.1414    7.9942 C.ar    1  UNL1        0.1339
      2 C          17.2020   43.0711    7.0144 C.ar    1  UNL1        0.0345
      3 C          16.2188   43.7190    6.2669 C.ar    1  UNL1        0.0041
      4 C          14.8732   43.4375    6.4990 C.ar    1  UNL1        0.0149
      5 C          14.5280   42.5031    7.4847 C.ar    1  UNL1        0.0617
      6 N          15.5070   41.8854    8.2001 N.ar    1  UNL1       -0.2348
      7 C          13.0977   42.1717    7.7682 C.3     1  UNL1        0.0602
      8 C          12.9524   41.4575    9.1137 C.3     1  UNL1        0.0094
      9 C          11.4838   41.1479    9.3938 C.3     1  UNL1        0.0220
     10 C          10.9029   40.2974    8.2678 C.3     1  UNL1        0.0937
     11 C          12.4967   41.3280    6.6436 C.3     1  UNL1        0.0996
     12 C          10.0349   41.4080    6.1559 C.2     1  UNL1        0.2505
     13 N          11.1243   40.9628    6.9854 N.am    1  UNL1       -0.2757
     14 O          10.2276   42.3632    5.3537 O.2     1  UNL1       -0.2699
     15 C           8.6940   40.7787    6.2016 C.ar    1  UNL1        0.0727
     16 C           8.4663   39.4926    5.6931 C.ar    1  UNL1        0.1034
     17 C           6.1590   39.6276    6.2347 C.ar    1  UNL1        0.0989
     18 C           6.3324   40.9157    6.7426 C.ar    1  UNL1        0.0208
     19 C           7.6039   41.4901    6.7204 C.ar    1  UNL1        0.0077
     20 N           7.2199   38.9487    5.7232 N.ar    1  UNL1       -0.2422
     21 N          17.7989   41.4475    8.7908 N.pl3   1  UNL1       -0.2680
     22 H          18.6967   41.8497    8.8308 H       1  UNL1        0.1565
     23 C          19.5618   37.1356   10.2120 C.3     1  UNL1        0.0522
     24 C          18.4668   38.1400   10.2276 C.ar    1  UNL1        0.0634
     25 C          17.3025   37.8902   10.9515 C.ar    1  UNL1        0.0296
     26 C          16.2987   38.8566   10.9414 C.ar    1  UNL1        0.0634
     27 C          17.6131   40.2361    9.5352 C.ar    1  UNL1        0.2211
     28 C          15.0410   38.6304   11.6998 C.3     1  UNL1        0.0522
     29 N          16.4700   40.0058   10.2378 N.ar    1  UNL1       -0.2179
     30 N          18.6007   39.3019    9.5362 N.ar    1  UNL1       -0.2179
@<TRIPOS>BOND
     1    23    24    1
     2    24    30   ar
     3    25    26   ar
     4    27    29   ar
     5    27    21    1
     6     1     6   ar
     7     2     3   ar
     8     4     5   ar
     9     7     5    1
    10     7     8    1
    11     8     9    1
    12     9    10    1
    13    10    13    1
    14    11    13    1
    15    11     7    1
    16    12    15    1
    17    16    20   ar
    18    17    18   ar
    19    19    15   ar
    20    28    26    1
    21    21     1    1
    22    13    12   am
    23    24    25   ar
    24    26    29   ar
    25    27    30   ar
    26     1     2   ar
    27     3     4   ar
    28     5     6   ar
    29    12    14    2
    30    15    16   ar
    31    17    20   ar
    32    18    19   ar
    33    21    22    1
@<TRIPOS>MOLECULE
MolPort-020-298-618 MCULE-6502622054 PubChem-110269774
 30 33 0 0 0
SMALL
GASTEIGER

@<TRIPOS>ATOM
      1 C           5.1726   43.1346    8.3825 C.ar    1  UNL1        0.1339
      2 C           5.4268   43.8528    7.2061 C.ar    1  UNL1        0.0345
      3 C           6.7203   43.8891    6.6857 C.ar    1  UNL1        0.0041
      4 C           7.7496   43.2121    7.3384 C.ar    1  UNL1        0.0149
      5 C           7.4668   42.5022    8.5132 C.ar    1  UNL1        0.0617
      6 N           6.1960   42.4827    8.9994 N.ar    1  UNL1       -0.2348
      7 C           8.5395   41.7607    9.2450 C.3     1  UNL1        0.0602
      8 C           8.4128   41.9563   10.7574 C.3     1  UNL1        0.0094
      9 C           9.5028   41.1743   11.4863 C.3     1  UNL1        0.0220
     10 C          10.8801   41.6165   11.0001 C.3     1  UNL1        0.0937
     11 C           9.9269   42.1845    8.7620 C.3     1  UNL1        0.0996
     12 C          11.8701   40.6000    8.8945 C.2     1  UNL1        0.2505
     13 N          10.9495   41.4956    9.5451 N.am    1  UNL1       -0.2757
     14 O          11.5890   40.1633    7.7442 O.2     1  UNL1       -0.2699
     15 C          13.1442   40.1776    9.5225 C.ar    1  UNL1        0.0727
     16 C          14.3765   40.3526    8.8780 C.ar    1  UNL1        0.1034
     17 C          15.5279   39.3250   10.6818 C.ar    1  UNL1        0.0989
     18 C          14.3252   39.1178   11.3585 C.ar    1  UNL1        0.0208
     19 C          13.1327   39.5433   10.7718 C.ar    1  UNL1        0.0077
     20 N          15.5289   39.9314    9.4651 N.ar    1  UNL1       -0.2422
     21 N           3.8608   43.0649    8.9596 N.pl3   1  UNL1       -0.2680
     22 H           3.1445   43.5298    8.4697 H       1  UNL1        0.1565
     23 C           4.5289   39.3666   12.0574 C.3     1  UNL1        0.0522
     24 C           3.7945   40.6003   11.6747 C.ar    1  UNL1        0.0634
     25 C           2.7620   41.0751   12.4813 C.ar    1  UNL1        0.0296
     26 C           2.0974   42.2351   12.0885 C.ar    1  UNL1        0.0634
     27 C           3.4725   42.3965   10.1673 C.ar    1  UNL1        0.2211
     28 C           0.9905   42.7756   12.9196 C.3     1  UNL1        0.0522
     29 N           2.4617   42.8720   10.9454 N.ar    1  UNL1       -0.2179
     30 N           4.1295   41.2657   10.5384 N.ar    1  UNL1       -0.2179
@<TRIPOS>BOND
     1    23    24    1
     2    24    30   ar
     3    25    26   ar
     4    27    29   ar
     5    27    21    1
     6     1     6   ar
     7     2     3   ar
     8     4     5   ar
     9     7     5    1
    10     7     8    1
    11     8     9    1
    12     9    10    1
    13    10    13    1
    14    11    13    1
    15    11     7    1
    16    12    15    1
    17    16    20   ar
    18    17    18   ar
    19    19    15   ar
    20    28    26    1
    21    21     1    1
    22    13    12   am
    23    24    25   ar
    24    26    29   ar
    25    27    30   ar
    26     1     2   ar
    27     3     4   ar
    28     5     6   ar
    29    12    14    2
    30    15    16   ar
    31    17    20   ar
    32    18    19   ar
    33    21    22    1
@<TRIPOS>MOLECULE
MolPort-020-298-618 MCULE-6502622054 PubChem-110269774
 30 33 0 0 0
SMALL
GASTEIGER

@<TRIPOS>ATOM
      1 C          11.9572   41.3064    8.4092 C.ar    1  UNL1        0.1339
      2 C          10.7001   41.3991    9.0218 C.ar    1  UNL1        0.0345
      3 C          10.3243   40.4506    9.9728 C.ar    1  UNL1        0.0041
      4 C          11.2003   39.4186   10.3066 C.ar    1  UNL1        0.0149
      5 C          12.4509   39.3502    9.6778 C.ar    1  UNL1        0.0617
      6 N          12.7928   40.2886    8.7536 N.ar    1  UNL1       -0.2348
      7 C          13.4222   38.2616   10.0061 C.3     1  UNL1        0.0602
      8 C          13.8943   38.3619   11.4582 C.3     1  UNL1        0.0094
      9 C          14.8673   37.2300   11.7788 C.3     1  UNL1        0.0220
     10 C          16.0558   37.2732   10.8226 C.3     1  UNL1        0.0937
     11 C          14.6150   38.2840    9.0498 C.3     1  UNL1        0.0996
     12 C          15.8867   36.1806    8.5367 C.2     1  UNL1        0.2505
     13 N          15.5762   37.2564    9.4419 N.am    1  UNL1       -0.2757
     14 O          15.1039   35.9450    7.5752 O.2     1  UNL1       -0.2699
     15 C          17.0999   35.3428    8.6863 C.ar    1  UNL1        0.0727
     16 C          17.0259   33.9446    8.7509 C.ar    1  UNL1        0.1034
     17 C          19.3774   33.7784    9.0299 C.ar    1  UNL1        0.0989
     18 C          19.5020   35.1675    8.9832 C.ar    1  UNL1        0.0208
     19 C          18.3573   35.9476    8.8148 C.ar    1  UNL1        0.0077
     20 N          18.1524   33.2002    8.9155 N.ar    1  UNL1       -0.2422
     21 N          12.3927   42.2556    7.4253 N.pl3   1  UNL1       -0.2680
     22 H          11.7081   42.5717    6.7924 H       1  UNL1        0.1565
     23 C          17.1572   41.9614    8.3913 C.3     1  UNL1        0.0522
     24 C          16.0259   42.6570    7.7248 C.ar    1  UNL1        0.0634
     25 C          16.2619   43.8002    6.9638 C.ar    1  UNL1        0.0296
     26 C          15.1750   44.4238    6.3546 C.ar    1  UNL1        0.0634
     27 C          13.7099   42.7970    7.2571 C.ar    1  UNL1        0.2211
     28 C          15.3823   45.6455    5.5342 C.3     1  UNL1        0.0522
     29 N          13.9254   43.9148    6.5107 N.ar    1  UNL1       -0.2179
     30 N          14.7612   42.1783    7.8573 N.ar    1  UNL1       -0.2179
@<TRIPOS>BOND
     1    23    24    1
     2    24    30   ar
     3    25    26   ar
     4    27    29   ar
     5    27    21    1
     6     1     6   ar
     7     2     3   ar
     8     4     5   ar
     9     7     5    1
    10     7     8    1
    11     8     9    1
    12     9    10    1
    13    10    13    1
    14    11    13    1
    15    11     7    1
    16    12    15    1
    17    16    20   ar
    18    17    18   ar
    19    19    15   ar
    20    28    26    1
    21    21     1    1
    22    13    12   am
    23    24    25   ar
    24    26    29   ar
    25    27    30   ar
    26     1     2   ar
    27     3     4   ar
    28     5     6   ar
    29    12    14    2
    30    15    16   ar
    31    17    20   ar
    32    18    19   ar
    33    21    22    1
@<TRIPOS>MOLECULE
MolPort-020-298-618 MCULE-6502622054 PubChem-110269774
 30 33 0 0 0
SMALL
GASTEIGER

@<TRIPOS>ATOM
      1 C           8.7630   42.8831   10.7664 C.ar    1  UNL1        0.1339
      2 C           8.1880   42.2658   11.8856 C.ar    1  UNL1        0.0345
      3 C           8.8814   41.2524   12.5470 C.ar    1  UNL1        0.0041
      4 C          10.1395   40.8612   12.0908 C.ar    1  UNL1        0.0149
      5 C          10.6901   41.4956   10.9690 C.ar    1  UNL1        0.0617
      6 N           9.9925   42.4816   10.3423 N.ar    1  UNL1       -0.2348
      7 C          12.0367   41.1091   10.4462 C.3     1  UNL1        0.0602
      8 C          12.2005   41.5230    8.9821 C.3     1  UNL1        0.0094
      9 C          13.5883   41.1394    8.4746 C.3     1  UNL1        0.0220
     10 C          13.8100   39.6384    8.6373 C.3     1  UNL1        0.0937
     11 C          12.2796   39.6086   10.6115 C.3     1  UNL1        0.0996
     12 C          14.6095   38.7064   10.8599 C.2     1  UNL1        0.2505
     13 N          13.5705   39.2543   10.0272 N.am    1  UNL1       -0.2757
     14 O          14.5264   38.8439   12.1118 O.2     1  UNL1       -0.2699
     15 C          15.7720   37.9764   10.3014 C.ar    1  UNL1        0.0727
     16 C          15.6305   37.0608    9.2497 C.ar    1  UNL1        0.1034
     17 C          17.9510   36.5624    9.2988 C.ar    1  UNL1        0.0989
     18 C          18.1413   37.4547   10.3547 C.ar    1  UNL1        0.0208
     19 C          17.0457   38.1582   10.8565 C.ar    1  UNL1        0.0077
     20 N          16.7099   36.3839    8.7734 N.ar    1  UNL1       -0.2422
     21 N           8.0925   43.9302   10.0503 N.pl3   1  UNL1       -0.2680
     22 H           8.2374   44.8459   10.3814 H       1  UNL1        0.1565
     23 C           7.1761   41.7852    5.7749 C.3     1  UNL1        0.0522
     24 C           6.7876   42.7567    6.8299 C.ar    1  UNL1        0.0634
     25 C           5.6206   43.5057    6.6919 C.ar    1  UNL1        0.0296
     26 C           5.2905   44.4061    7.7027 C.ar    1  UNL1        0.0634
     27 C           7.2358   43.7971    8.9081 C.ar    1  UNL1        0.2211
     28 C           4.0549   45.2246    7.5953 C.3     1  UNL1        0.0522
     29 N           6.0987   44.5357    8.7867 N.ar    1  UNL1       -0.2179
     30 N           7.5702   42.9148    7.9294 N.ar    1  UNL1       -0.2179
@<TRIPOS>BOND
     1    23    24    1
     2    24    30   ar
     3    25    26   ar
     4    27    29   ar
     5    27    21    1
     6     1     6   ar
     7     2     3   ar
     8     4     5   ar
     9     7     5    1
    10     7     8    1
    11     8     9    1
    12     9    10    1
    13    10    13    1
    14    11    13    1
    15    11     7    1
    16    12    15    1
    17    16    20   ar
    18    17    18   ar
    19    19    15   ar
    20    28    26    1
    21    21     1    1
    22    13    12   am
    23    24    25   ar
    24    26    29   ar
    25    27    30   ar
    26     1     2   ar
    27     3     4   ar
    28     5     6   ar
    29    12    14    2
    30    15    16   ar
    31    17    20   ar
    32    18    19   ar
    33    21    22    1
@<TRIPOS>MOLECULE
MolPort-020-298-618 MCULE-6502622054 PubChem-110269774
 30 33 0 0 0
SMALL
GASTEIGER

@<TRIPOS>ATOM
      1 C          15.2517   39.7722   10.1136 C.ar    1  UNL1        0.1339
      2 C          15.5693   38.9115   11.1731 C.ar    1  UNL1        0.0345
      3 C          14.5493   38.2365   11.8433 C.ar    1  UNL1        0.0041
      4 C          13.2231   38.4224   11.4553 C.ar    1  UNL1        0.0149
      5 C          12.9345   39.2893   10.3926 C.ar    1  UNL1        0.0617
      6 N          13.9486   39.9354    9.7555 N.ar    1  UNL1       -0.2348
      7 C          11.5270   39.5174    9.9420 C.3     1  UNL1        0.0602
      8 C          11.2716   38.8700    8.5792 C.3     1  UNL1        0.0094
      9 C           9.8245   39.0957    8.1479 C.3     1  UNL1        0.0220
     10 C           9.5184   40.5899    8.0995 C.3     1  UNL1        0.0937
     11 C          11.2002   41.0104    9.8982 C.3     1  UNL1        0.0996
     12 C           8.8440   41.8171   10.2177 C.2     1  UNL1        0.2505
     13 N           9.8451   41.2001    9.3869 N.am    1  UNL1       -0.2757
     14 O           9.0383   41.8831   11.4630 O.2     1  UNL1       -0.2699
     15 C           7.5941   42.3881    9.6628 C.ar    1  UNL1        0.0727
     16 C           6.3784   41.6928    9.7189 C.ar    1  UNL1        0.1034
     17 C           5.2627   43.4403    8.5628 C.ar    1  UNL1        0.0989
     18 C           6.4509   44.1663    8.4712 C.ar    1  UNL1        0.0208
     19 C           7.6176   43.6332    9.0206 C.ar    1  UNL1        0.0077
     20 N           5.2510   42.2281    9.1780 N.ar    1  UNL1       -0.2422
     21 N          16.2622   40.4901    9.3911 N.pl3   1  UNL1       -0.2680
     22 H          17.1948   40.2362    9.5788 H       1  UNL1        0.1565
     23 C          13.2969   42.7699    6.2719 C.3     1  UNL1        0.0522
     24 C          14.6327   42.6447    6.9107 C.ar    1  UNL1        0.0634
     25 C          15.6546   43.5277    6.5674 C.ar    1  UNL1        0.0296
     26 C          16.8930   43.3778    7.1884 C.ar    1  UNL1        0.0634
     27 C          16.0712   41.5346    8.4275 C.ar    1  UNL1        0.2211
     28 C          18.0101   44.2980    6.8515 C.3     1  UNL1        0.0522
     29 N          17.0790   42.3900    8.1020 N.ar    1  UNL1       -0.2179
     30 N          14.8578   41.6693    7.8294 N.ar    1  UNL1       -0.2179
@<TRIPOS>BOND
     1    23    24    1
     2    24    30   ar
     3    25    26   ar
     4    27    29   ar
     5    27    21    1
     6     1     6   ar
     7     2     3   ar
     8     4     5   ar
     9     7     5    1
    10     7     8    1
    11     8     9    1
    12     9    10    1
    13    10    13    1
    14    11    13    1
    15    11     7    1
    16    12    15    1
    17    16    20   ar
    18    17    18   ar
    19    19    15   ar
    20    28    26    1
    21    21     1    1
    22    13    12   am
    23    24    25   ar
    24    26    29   ar
    25    27    30   ar
    26     1     2   ar
    27     3     4   ar
    28     5     6   ar
    29    12    14    2
    30    15    16   ar
    31    17    20   ar
    32    18    19   ar
    33    21    22    1
