@<TRIPOS>MOLECULE
MolPort-003-020-518 6456015 CSSS03437095292 LN01391661 MCULE-1548270284 PubChem-5176146 ZINC000006456015
 28 31 0 0 0
SMALL
GASTEIGER

@<TRIPOS>ATOM
      1 C          13.9367   42.3455    6.8635 C.ar    1  UNL1        0.0898
      2 C          15.8667   41.7645    8.3329 C.ar    1  UNL1        0.0096
      3 C          16.1260   42.8474    7.4958 C.ar    1  UNL1       -0.0081
      4 C          17.4174   43.5982    7.5094 C.3     1  UNL1        0.0320
      5 C          15.0384   43.1828    6.6700 C.ar    1  UNL1        0.0843
      6 S          14.2893   41.2393    8.0775 S.2     1  UNL1       -0.0759
      7 C          11.5494   41.5633    6.4694 C.2     1  UNL1        0.2260
      8 N          12.6454   42.4599    6.2551 N.am    1  UNL1       -0.2784
      9 O          11.5432   40.7869    7.4611 O.2     1  UNL1       -0.2748
     10 H          12.4995   43.2151    5.6405 H       1  UNL1        0.1553
     11 C          10.3667   41.5767    5.5505 C.3     1  UNL1        0.0768
     12 C           9.0345   41.5310    6.3080 C.3     1  UNL1        0.0091
     13 C           8.7244   40.1275    6.8275 C.3     1  UNL1        0.0005
     14 C           8.7379   39.1246    5.6796 C.3     1  UNL1        0.0000
     15 C          10.1109   39.1104    5.0175 C.3     1  UNL1        0.0005
     16 C          10.4487   40.4956    4.4662 C.3     1  UNL1        0.0091
     17 C          15.0339   44.3428    5.8130 C.1     1  UNL1        0.1019
     18 N          15.0324   45.2736    5.1253 N.1     1  UNL1       -0.1908
     19 C          16.7848   41.2160    9.3763 C.3     1  UNL1        0.0590
     20 C          16.2656   39.9205    9.9012 C.ar    1  UNL1       -0.0141
     21 C          17.1674   38.8842   10.2340 C.ar    1  UNL1       -0.0006
     22 C          16.6920   37.6481   10.7082 C.ar    1  UNL1        0.0399
     23 C          15.3133   37.4939   10.8289 C.ar    1  UNL1        0.1764
     24 C          14.4453   38.4865   10.5058 C.ar    1  UNL1        0.1761
     25 C          13.2096   36.7073   11.2117 C.3     1  UNL1        0.4294
     26 C          14.8776   39.7227   10.0334 C.ar    1  UNL1        0.0363
     27 O          13.1520   38.0546   10.7218 O.3     1  UNL1       -0.4346
     28 O          14.6077   36.3902   11.2644 O.3     1  UNL1       -0.4346
@<TRIPOS>BOND
     1     1     8    1
     2     1     6   ar
     3    11     7    1
     4    11    12    1
     5    12    13    1
     6    13    14    1
     7    14    15    1
     8    15    16    1
     9    16    11    1
    10     2     6   ar
    11     3     5   ar
    12     4     3    1
    13     5    17    1
    14    19     2    1
    15    19    20    1
    16    21    22   ar
    17    23    24   ar
    18    23    28    1
    19    24    27    1
    20    25    27    1
    21    25    28    1
    22    26    20   ar
    23     8     7   am
    24     7     9    2
    25     2     3   ar
    26     5     1   ar
    27    20    21   ar
    28    22    23   ar
    29    24    26   ar
    30    17    18    3
    31     8    10    1
@<TRIPOS>MOLECULE
MolPort-003-020-518 6456015 CSSS03437095292 LN01391661 MCULE-1548270284 PubChem-5176146 ZINC000006456015
 28 31 0 0 0
SMALL
GASTEIGER

@<TRIPOS>ATOM
      1 C          10.3836   41.4740    8.7546 C.ar    1  UNL1        0.0898
      2 C          12.6781   40.5331    9.0218 C.ar    1  UNL1        0.0096
      3 C          11.9546   40.5507   10.2121 C.ar    1  UNL1       -0.0081
      4 C          12.4940   40.0255   11.5023 C.3     1  UNL1        0.0320
      5 C          10.6579   41.0744   10.0651 C.ar    1  UNL1        0.0843
      6 S          11.7114   41.1343    7.7835 S.2     1  UNL1       -0.0759
      7 C           8.4398   43.1134    8.7341 C.2     1  UNL1        0.2260
      8 N           9.1398   41.9648    8.2421 N.am    1  UNL1       -0.2784
      9 O           9.0317   43.9652    9.4484 O.2     1  UNL1       -0.2748
     10 H           8.7335   41.4736    7.4919 H       1  UNL1        0.1553
     11 C           7.0093   43.3493    8.3580 C.3     1  UNL1        0.0768
     12 C           6.0692   43.3029    9.5683 C.3     1  UNL1        0.0091
     13 C           5.8029   41.8691   10.0259 C.3     1  UNL1        0.0005
     14 C           5.2528   41.0398    8.8712 C.3     1  UNL1        0.0000
     15 C           6.2588   41.0104    7.7264 C.3     1  UNL1        0.0005
     16 C           6.5362   42.4284    7.2270 C.3     1  UNL1        0.0091
     17 C           9.6882   41.0765   11.1327 C.1     1  UNL1        0.1019
     18 N           8.9116   41.0790   11.9907 N.1     1  UNL1       -0.1908
     19 C          14.0487   39.9697    8.8302 C.3     1  UNL1        0.0590
     20 C          15.0047   41.0430    8.4336 C.ar    1  UNL1       -0.0141
     21 C          16.2561   41.1455    9.0828 C.ar    1  UNL1       -0.0006
     22 C          17.1594   42.1667    8.7363 C.ar    1  UNL1        0.0399
     23 C          16.7679   43.0603    7.7425 C.ar    1  UNL1        0.1764
     24 C          15.5648   42.9661    7.1208 C.ar    1  UNL1        0.1761
     25 C          16.6526   44.7571    6.2265 C.3     1  UNL1        0.4294
     26 C          14.6448   41.9699    7.4364 C.ar    1  UNL1        0.0363
     27 O          15.4483   43.9782    6.1893 O.3     1  UNL1       -0.4346
     28 O          17.4664   44.1357    7.2313 O.3     1  UNL1       -0.4346
@<TRIPOS>BOND
     1     1     8    1
     2     1     6   ar
     3    11     7    1
     4    11    12    1
     5    12    13    1
     6    13    14    1
     7    14    15    1
     8    15    16    1
     9    16    11    1
    10     2     6   ar
    11     3     5   ar
    12     4     3    1
    13     5    17    1
    14    19     2    1
    15    19    20    1
    16    21    22   ar
    17    23    24   ar
    18    23    28    1
    19    24    27    1
    20    25    27    1
    21    25    28    1
    22    26    20   ar
    23     8     7   am
    24     7     9    2
    25     2     3   ar
    26     5     1   ar
    27    20    21   ar
    28    22    23   ar
    29    24    26   ar
    30    17    18    3
    31     8    10    1
@<TRIPOS>MOLECULE
MolPort-003-020-518 6456015 CSSS03437095292 LN01391661 MCULE-1548270284 PubChem-5176146 ZINC000006456015
 28 31 0 0 0
SMALL
GASTEIGER

@<TRIPOS>ATOM
      1 C          11.8630   39.9846    8.9829 C.ar    1  UNL1        0.0898
      2 C          14.3407   40.0756    9.2553 C.ar    1  UNL1        0.0096
      3 C          13.7822   38.8957    9.7416 C.ar    1  UNL1       -0.0081
      4 C          14.5959   37.7905   10.3314 C.3     1  UNL1        0.0320
      5 C          12.3861   38.8370    9.5843 C.ar    1  UNL1        0.0843
      6 S          13.1199   41.0330    8.6052 S.2     1  UNL1       -0.0759
      7 C           9.6362   41.1965    9.1816 C.2     1  UNL1        0.2260
      8 N          10.5032   40.2168    8.5985 N.am    1  UNL1       -0.2784
      9 O          10.1096   42.1457    9.8608 O.2     1  UNL1       -0.2748
     10 H          10.1350   39.6586    7.8760 H       1  UNL1        0.1553
     11 C           8.1586   41.1404    8.9435 C.3     1  UNL1        0.0768
     12 C           7.8104   40.6955    7.5182 C.3     1  UNL1        0.0091
     13 C           8.0186   41.8208    6.5051 C.3     1  UNL1        0.0005
     14 C           7.2129   43.0503    6.9086 C.3     1  UNL1        0.0000
     15 C           7.6604   43.5376    8.2819 C.3     1  UNL1        0.0005
     16 C           7.4483   42.4437    9.3284 C.3     1  UNL1        0.0091
     17 C          11.6107   37.6628    9.9007 C.1     1  UNL1        0.1019
     18 N          10.9867   36.7219   10.1548 N.1     1  UNL1       -0.1908
     19 C          15.7966   40.4075    9.2044 C.3     1  UNL1        0.0590
     20 C          16.0170   41.6825    8.4634 C.ar    1  UNL1       -0.0141
     21 C          17.1423   42.4841    8.7617 C.ar    1  UNL1       -0.0006
     22 C          17.3516   43.7010    8.0880 C.ar    1  UNL1        0.0399
     23 C          16.4114   44.0754    7.1314 C.ar    1  UNL1        0.1764
     24 C          15.3277   43.3089    6.8463 C.ar    1  UNL1        0.1761
     25 C          15.2236   45.1540    5.5137 C.3     1  UNL1        0.4294
     26 C          15.0866   42.0991    7.4917 C.ar    1  UNL1        0.0363
     27 O          14.5739   43.9246    5.8672 O.3     1  UNL1       -0.4346
     28 O          16.3918   45.2095    6.3446 O.3     1  UNL1       -0.4346
@<TRIPOS>BOND
     1     1     8    1
     2     1     6   ar
     3    11     7    1
     4    11    12    1
     5    12    13    1
     6    13    14    1
     7    14    15    1
     8    15    16    1
     9    16    11    1
    10     2     6   ar
    11     3     5   ar
    12     4     3    1
    13     5    17    1
    14    19     2    1
    15    19    20    1
    16    21    22   ar
    17    23    24   ar
    18    23    28    1
    19    24    27    1
    20    25    27    1
    21    25    28    1
    22    26    20   ar
    23     8     7   am
    24     7     9    2
    25     2     3   ar
    26     5     1   ar
    27    20    21   ar
    28    22    23   ar
    29    24    26   ar
    30    17    18    3
    31     8    10    1
@<TRIPOS>MOLECULE
MolPort-003-020-518 6456015 CSSS03437095292 LN01391661 MCULE-1548270284 PubChem-5176146 ZINC000006456015
 28 31 0 0 0
SMALL
GASTEIGER

@<TRIPOS>ATOM
      1 C          10.9058   40.9478    8.2322 C.ar    1  UNL1        0.0898
      2 C          13.1440   40.2042    9.0438 C.ar    1  UNL1        0.0096
      3 C          12.2691   39.1451    8.8125 C.ar    1  UNL1       -0.0081
      4 C          12.6530   37.7138    9.0006 C.3     1  UNL1        0.0320
      5 C          11.0079   39.5591    8.3486 C.ar    1  UNL1        0.0843
      6 S          12.3751   41.6471    8.6490 S.2     1  UNL1       -0.0759
      7 C           8.9305   42.5296    8.4825 C.2     1  UNL1        0.2260
      8 N           9.8001   41.6934    7.7106 N.am    1  UNL1       -0.2784
      9 O           9.2732   42.9222    9.6292 O.2     1  UNL1       -0.2748
     10 H           9.6235   41.6258    6.7444 H       1  UNL1        0.1553
     11 C           7.6263   42.9980    7.9145 C.3     1  UNL1        0.0768
     12 C           6.6131   43.3726    9.0026 C.3     1  UNL1        0.0091
     13 C           5.9876   42.1355    9.6463 C.3     1  UNL1        0.0005
     14 C           5.3481   41.2522    8.5813 C.3     1  UNL1        0.0000
     15 C           6.4026   40.8024    7.5767 C.3     1  UNL1        0.0005
     16 C           7.0382   42.0144    6.8957 C.3     1  UNL1        0.0091
     17 C           9.9860   38.6333    7.9258 C.1     1  UNL1        0.1019
     18 N           9.1674   37.8896    7.5850 N.1     1  UNL1       -0.1908
     19 C          14.5737   40.0923    9.4635 C.3     1  UNL1        0.0590
     20 C          15.4029   41.1232    8.7760 C.ar    1  UNL1       -0.0141
     21 C          16.7193   41.3797    9.2225 C.ar    1  UNL1       -0.0006
     22 C          17.5060   42.3654    8.5994 C.ar    1  UNL1        0.0399
     23 C          16.9353   43.0684    7.5415 C.ar    1  UNL1        0.1764
     24 C          15.6697   42.8266    7.1138 C.ar    1  UNL1        0.1761
     25 C          16.5211   44.4889    5.8090 C.3     1  UNL1        0.4294
     26 C          14.8610   41.8599    7.7051 C.ar    1  UNL1        0.0363
     27 O          15.3719   43.6676    6.0604 O.3     1  UNL1       -0.4346
     28 O          17.4947   44.0726    6.7770 O.3     1  UNL1       -0.4346
@<TRIPOS>BOND
     1     1     8    1
     2     1     6   ar
     3    11     7    1
     4    11    12    1
     5    12    13    1
     6    13    14    1
     7    14    15    1
     8    15    16    1
     9    16    11    1
    10     2     6   ar
    11     3     5   ar
    12     4     3    1
    13     5    17    1
    14    19     2    1
    15    19    20    1
    16    21    22   ar
    17    23    24   ar
    18    23    28    1
    19    24    27    1
    20    25    27    1
    21    25    28    1
    22    26    20   ar
    23     8     7   am
    24     7     9    2
    25     2     3   ar
    26     5     1   ar
    27    20    21   ar
    28    22    23   ar
    29    24    26   ar
    30    17    18    3
    31     8    10    1
@<TRIPOS>MOLECULE
MolPort-003-020-518 6456015 CSSS03437095292 LN01391661 MCULE-1548270284 PubChem-5176146 ZINC000006456015
 28 31 0 0 0
SMALL
GASTEIGER

@<TRIPOS>ATOM
      1 C          16.1845   36.4915    8.9257 C.ar    1  UNL1        0.0898
      2 C          15.1448   38.5773    9.8145 C.ar    1  UNL1        0.0096
      3 C          16.4051   38.3251   10.3519 C.ar    1  UNL1       -0.0081
      4 C          17.0708   39.2347   11.3321 C.3     1  UNL1        0.0320
      5 C          16.9980   37.1535    9.8489 C.ar    1  UNL1        0.0843
      6 S          14.7737   37.3745    8.6987 S.2     1  UNL1       -0.0759
      7 C          17.3682   35.3051    7.0132 C.2     1  UNL1        0.2260
      8 N          16.5136   35.3255    8.1623 N.am    1  UNL1       -0.2784
      9 O          18.1505   36.2646    6.7813 O.2     1  UNL1       -0.2748
     10 H          16.1210   34.4698    8.4502 H       1  UNL1        0.1553
     11 C          17.3873   34.1165    6.1022 C.3     1  UNL1        0.0768
     12 C          18.4186   34.2565    4.9764 C.3     1  UNL1        0.0091
     13 C          17.9341   35.2006    3.8765 C.3     1  UNL1        0.0005
     14 C          16.5888   34.7326    3.3335 C.3     1  UNL1        0.0000
     15 C          15.5547   34.7121    4.4532 C.3     1  UNL1        0.0005
     16 C          15.9955   33.7609    5.5657 C.3     1  UNL1        0.0091
     17 C          18.3484   36.7598   10.1677 C.1     1  UNL1        0.1019
     18 N          19.4327   36.4450   10.4216 N.1     1  UNL1       -0.1908
     19 C          14.2939   39.7755   10.0844 C.3     1  UNL1        0.0590
     20 C          14.3789   40.7430    8.9531 C.ar    1  UNL1       -0.0141
     21 C          13.2687   40.9237    8.0971 C.ar    1  UNL1       -0.0006
     22 C          13.3410   41.8153    7.0115 C.ar    1  UNL1        0.0399
     23 C          14.5395   42.4979    6.8199 C.ar    1  UNL1        0.1764
     24 C          15.6084   42.3226    7.6384 C.ar    1  UNL1        0.1761
     25 C          16.2106   43.8427    6.0517 C.3     1  UNL1        0.4294
     26 C          15.5750   41.4495    8.7222 C.ar    1  UNL1        0.0363
     27 O          16.6507   43.1203    7.2105 O.3     1  UNL1       -0.4346
     28 O          14.8579   43.4149    5.8384 O.3     1  UNL1       -0.4346
@<TRIPOS>BOND
     1     1     8    1
     2     1     6   ar
     3    11     7    1
     4    11    12    1
     5    12    13    1
     6    13    14    1
     7    14    15    1
     8    15    16    1
     9    16    11    1
    10     2     6   ar
    11     3     5   ar
    12     4     3    1
    13     5    17    1
    14    19     2    1
    15    19    20    1
    16    21    22   ar
    17    23    24   ar
    18    23    28    1
    19    24    27    1
    20    25    27    1
    21    25    28    1
    22    26    20   ar
    23     8     7   am
    24     7     9    2
    25     2     3   ar
    26     5     1   ar
    27    20    21   ar
    28    22    23   ar
    29    24    26   ar
    30    17    18    3
    31     8    10    1
@<TRIPOS>MOLECULE
MolPort-003-020-518 6456015 CSSS03437095292 LN01391661 MCULE-1548270284 PubChem-5176146 ZINC000006456015
 28 31 0 0 0
SMALL
GASTEIGER

@<TRIPOS>ATOM
      1 C           9.9697   41.2951    8.9933 C.ar    1  UNL1        0.0898
      2 C          12.3520   40.5615    8.9053 C.ar    1  UNL1        0.0096
      3 C          11.8340   40.5762   10.1984 C.ar    1  UNL1       -0.0081
      4 C          12.6217   40.1601   11.3975 C.3     1  UNL1        0.0320
      5 C          10.4891   40.9830   10.2524 C.ar    1  UNL1        0.0843
      6 S          11.1461   41.0204    7.8262 S.2     1  UNL1       -0.0759
      7 C           7.7323   40.8937    7.8534 C.2     1  UNL1        0.2260
      8 N           8.6199   41.6560    8.6794 N.am    1  UNL1       -0.2784
      9 O           7.9741   39.6834    7.6021 O.2     1  UNL1       -0.2748
     10 H           8.2746   42.4949    9.0618 H       1  UNL1        0.1553
     11 C           6.4728   41.5074    7.3242 C.3     1  UNL1        0.0768
     12 C           6.7355   42.7887    6.5242 C.3     1  UNL1        0.0091
     13 C           7.0336   43.9774    7.4376 C.3     1  UNL1        0.0005
     14 C           5.8973   44.1756    8.4342 C.3     1  UNL1        0.0000
     15 C           5.7343   42.9263    9.2923 C.3     1  UNL1        0.0005
     16 C           5.4144   41.7169    8.4138 C.3     1  UNL1        0.0091
     17 C           9.7105   40.9559   11.4661 C.1     1  UNL1        0.1019
     18 N           9.0841   40.9329   12.4389 N.1     1  UNL1       -0.1908
     19 C          13.7179   40.1052    8.5068 C.3     1  UNL1        0.0590
     20 C          14.5481   41.2625    8.0658 C.ar    1  UNL1       -0.0141
     21 C          15.8442   41.4427    8.6002 C.ar    1  UNL1       -0.0006
     22 C          16.6308   42.5423    8.2120 C.ar    1  UNL1        0.0399
     23 C          16.0804   43.4333    7.2940 C.ar    1  UNL1        0.1764
     24 C          14.8342   43.2643    6.7827 C.ar    1  UNL1        0.1761
     25 C          15.6939   45.1628    5.8621 C.3     1  UNL1        0.4294
     26 C          14.0262   42.1892    7.1427 C.ar    1  UNL1        0.0363
     27 O          14.5537   44.2930    5.9059 O.3     1  UNL1       -0.4346
     28 O          16.6440   44.5760    6.7628 O.3     1  UNL1       -0.4346
@<TRIPOS>BOND
     1     1     8    1
     2     1     6   ar
     3    11     7    1
     4    11    12    1
     5    12    13    1
     6    13    14    1
     7    14    15    1
     8    15    16    1
     9    16    11    1
    10     2     6   ar
    11     3     5   ar
    12     4     3    1
    13     5    17    1
    14    19     2    1
    15    19    20    1
    16    21    22   ar
    17    23    24   ar
    18    23    28    1
    19    24    27    1
    20    25    27    1
    21    25    28    1
    22    26    20   ar
    23     8     7   am
    24     7     9    2
    25     2     3   ar
    26     5     1   ar
    27    20    21   ar
    28    22    23   ar
    29    24    26   ar
    30    17    18    3
    31     8    10    1
@<TRIPOS>MOLECULE
MolPort-003-020-518 6456015 CSSS03437095292 LN01391661 MCULE-1548270284 PubChem-5176146 ZINC000006456015
 28 31 0 0 0
SMALL
GASTEIGER

@<TRIPOS>ATOM
      1 C           8.7155   41.4105    8.4986 C.ar    1  UNL1        0.0898
      2 C          10.8325   40.5310    7.5157 C.ar    1  UNL1        0.0096
      3 C           9.9308   40.9804    6.5537 C.ar    1  UNL1       -0.0081
      4 C          10.2254   40.9653    5.0893 C.3     1  UNL1        0.0320
      5 C           8.7383   41.4833    7.1034 C.ar    1  UNL1        0.0843
      6 S          10.1740   40.7800    9.0434 S.2     1  UNL1       -0.0759
      7 C           6.2980   41.6398    9.2533 C.2     1  UNL1        0.2260
      8 N           7.6991   41.9107    9.3747 N.am    1  UNL1       -0.2784
      9 O           5.8916   40.6769    8.5505 O.2     1  UNL1       -0.2748
     10 H           7.9863   42.4865   10.1197 H       1  UNL1        0.1553
     11 C           5.2979   42.4612   10.0071 C.3     1  UNL1        0.0768
     12 C           5.0163   41.9034   11.4072 C.3     1  UNL1        0.0091
     13 C           4.1027   40.6791   11.3575 C.3     1  UNL1        0.0005
     14 C           2.8063   41.0166   10.6300 C.3     1  UNL1        0.0000
     15 C           3.1106   41.4599    9.2036 C.3     1  UNL1        0.0005
     16 C           4.0080   42.6974    9.2123 C.3     1  UNL1        0.0091
     17 C           7.7142   42.1148    6.3082 C.1     1  UNL1        0.1019
     18 N           6.8924   42.6198    5.6687 N.1     1  UNL1       -0.1908
     19 C          12.2115   40.0154    7.2604 C.3     1  UNL1        0.0590
     20 C          13.1835   41.1426    7.1726 C.ar    1  UNL1       -0.0141
     21 C          14.3415   41.1377    7.9831 C.ar    1  UNL1       -0.0006
     22 C          15.2562   42.2050    7.9290 C.ar    1  UNL1        0.0399
     23 C          14.9704   43.2519    7.0564 C.ar    1  UNL1        0.1764
     24 C          13.8567   43.2606    6.2801 C.ar    1  UNL1        0.1761
     25 C          15.0044   45.1793    5.8418 C.3     1  UNL1        0.4294
     26 C          12.9287   42.2231    6.3061 C.ar    1  UNL1        0.0363
     27 O          13.8330   44.4147    5.5230 O.3     1  UNL1       -0.4346
     28 O          15.7012   44.3998    6.8242 O.3     1  UNL1       -0.4346
@<TRIPOS>BOND
     1     1     8    1
     2     1     6   ar
     3    11     7    1
     4    11    12    1
     5    12    13    1
     6    13    14    1
     7    14    15    1
     8    15    16    1
     9    16    11    1
    10     2     6   ar
    11     3     5   ar
    12     4     3    1
    13     5    17    1
    14    19     2    1
    15    19    20    1
    16    21    22   ar
    17    23    24   ar
    18    23    28    1
    19    24    27    1
    20    25    27    1
    21    25    28    1
    22    26    20   ar
    23     8     7   am
    24     7     9    2
    25     2     3   ar
    26     5     1   ar
    27    20    21   ar
    28    22    23   ar
    29    24    26   ar
    30    17    18    3
    31     8    10    1
@<TRIPOS>MOLECULE
MolPort-003-020-518 6456015 CSSS03437095292 LN01391661 MCULE-1548270284 PubChem-5176146 ZINC000006456015
 28 31 0 0 0
SMALL
GASTEIGER

@<TRIPOS>ATOM
      1 C          10.1635   40.9436    7.9555 C.ar    1  UNL1        0.0898
      2 C          12.5329   40.5807    8.6451 C.ar    1  UNL1        0.0096
      3 C          11.8479   39.3921    8.4030 C.ar    1  UNL1       -0.0081
      4 C          12.4857   38.0458    8.5138 C.3     1  UNL1        0.0320
      5 C          10.5133   39.5919    8.0076 C.ar    1  UNL1        0.0843
      6 S          11.5047   41.8774    8.3437 S.2     1  UNL1       -0.0759
      7 C           7.7123   41.5387    8.2782 C.2     1  UNL1        0.2260
      8 N           8.9208   41.4993    7.5107 N.am    1  UNL1       -0.2784
      9 O           7.7420   41.3730    9.5264 O.2     1  UNL1       -0.2748
     10 H           8.8953   41.8849    6.6052 H       1  UNL1        0.1553
     11 C           6.4020   41.8360    7.6164 C.3     1  UNL1        0.0768
     12 C           6.2682   43.3099    7.2157 C.3     1  UNL1        0.0091
     13 C           5.9609   44.2001    8.4195 C.3     1  UNL1        0.0005
     14 C           4.7065   43.7090    9.1330 C.3     1  UNL1        0.0000
     15 C           4.9111   42.2790    9.6198 C.3     1  UNL1        0.0005
     16 C           5.2015   41.3527    8.4389 C.3     1  UNL1        0.0091
     17 C           9.6515   38.5150    7.5860 C.1     1  UNL1        0.1019
     18 N           8.9589   37.6523    7.2462 N.1     1  UNL1       -0.1908
     19 C          13.9779   40.7094    9.0027 C.3     1  UNL1        0.0590
     20 C          14.6574   41.6769    8.0943 C.ar    1  UNL1       -0.0141
     21 C          13.9576   42.2170    6.9913 C.ar    1  UNL1       -0.0006
     22 C          14.5919   43.1129    6.1117 C.ar    1  UNL1        0.0399
     23 C          15.9216   43.4348    6.3715 C.ar    1  UNL1        0.1764
     24 C          16.5968   42.9139    7.4278 C.ar    1  UNL1        0.1761
     25 C          18.0330   44.2890    6.3154 C.3     1  UNL1        0.4294
     26 C          16.0034   42.0246    8.3196 C.ar    1  UNL1        0.0363
     27 O          17.8872   43.4043    7.4355 O.3     1  UNL1       -0.4346
     28 O          16.7546   44.2785    5.6645 O.3     1  UNL1       -0.4346
@<TRIPOS>BOND
     1     1     8    1
     2     1     6   ar
     3    11     7    1
     4    11    12    1
     5    12    13    1
     6    13    14    1
     7    14    15    1
     8    15    16    1
     9    16    11    1
    10     2     6   ar
    11     3     5   ar
    12     4     3    1
    13     5    17    1
    14    19     2    1
    15    19    20    1
    16    21    22   ar
    17    23    24   ar
    18    23    28    1
    19    24    27    1
    20    25    27    1
    21    25    28    1
    22    26    20   ar
    23     8     7   am
    24     7     9    2
    25     2     3   ar
    26     5     1   ar
    27    20    21   ar
    28    22    23   ar
    29    24    26   ar
    30    17    18    3
    31     8    10    1
@<TRIPOS>MOLECULE
MolPort-003-020-518 6456015 CSSS03437095292 LN01391661 MCULE-1548270284 PubChem-5176146 ZINC000006456015
 28 31 0 0 0
SMALL
GASTEIGER

@<TRIPOS>ATOM
      1 C          15.1068   38.3312    9.6444 C.ar    1  UNL1        0.0898
      2 C          12.9931   39.6131    9.9766 C.ar    1  UNL1        0.0096
      3 C          12.7803   38.2475    9.8023 C.ar    1  UNL1       -0.0081
      4 C          11.4250   37.6209    9.8466 C.3     1  UNL1        0.0320
      5 C          13.9697   37.5196    9.6211 C.ar    1  UNL1        0.0843
      6 S          14.6465   39.9198    9.9374 S.2     1  UNL1       -0.0759
      7 C          17.2726   37.5199   10.7016 C.2     1  UNL1        0.2260
      8 N          16.4733   37.9081    9.5783 N.am    1  UNL1       -0.2784
      9 O          16.7308   37.2162   11.7972 O.2     1  UNL1       -0.2748
     10 H          16.8971   37.8819    8.6901 H       1  UNL1        0.1553
     11 C          18.7610   37.4126   10.5733 C.3     1  UNL1        0.0768
     12 C          19.2346   37.5291    9.1198 C.3     1  UNL1        0.0091
     13 C          18.9872   36.2400    8.3368 C.3     1  UNL1        0.0005
     14 C          19.6515   35.0606    9.0377 C.3     1  UNL1        0.0000
     15 C          19.0785   34.8997   10.4411 C.3     1  UNL1        0.0005
     16 C          19.3250   36.1647   11.2633 C.3     1  UNL1        0.0091
     17 C          14.0033   36.0797    9.5454 C.1     1  UNL1        0.1019
     18 N          14.0307   34.9242    9.4869 N.1     1  UNL1       -0.1908
     19 C          11.9468   40.6393   10.2678 C.3     1  UNL1        0.0590
     20 C          11.1804   40.9702    9.0324 C.ar    1  UNL1       -0.0141
     21 C          11.8641   41.1578    7.8095 C.ar    1  UNL1       -0.0006
     22 C          11.1578   41.4933    6.6402 C.ar    1  UNL1        0.0399
     23 C           9.7761   41.6337    6.7425 C.ar    1  UNL1        0.1764
     24 C           9.1181   41.4581    7.9170 C.ar    1  UNL1        0.1761
     25 C           7.5614   41.9843    6.3388 C.3     1  UNL1        0.4294
     26 C           9.7822   41.1259    9.0946 C.ar    1  UNL1        0.0363
     27 O           7.7667   41.6614    7.7216 O.3     1  UNL1       -0.4346
     28 O           8.8701   41.9551    5.7518 O.3     1  UNL1       -0.4346
@<TRIPOS>BOND
     1     1     8    1
     2     1     6   ar
     3    11     7    1
     4    11    12    1
     5    12    13    1
     6    13    14    1
     7    14    15    1
     8    15    16    1
     9    16    11    1
    10     2     6   ar
    11     3     5   ar
    12     4     3    1
    13     5    17    1
    14    19     2    1
    15    19    20    1
    16    21    22   ar
    17    23    24   ar
    18    23    28    1
    19    24    27    1
    20    25    27    1
    21    25    28    1
    22    26    20   ar
    23     8     7   am
    24     7     9    2
    25     2     3   ar
    26     5     1   ar
    27    20    21   ar
    28    22    23   ar
    29    24    26   ar
    30    17    18    3
    31     8    10    1
@<TRIPOS>MOLECULE
MolPort-003-020-518 6456015 CSSS03437095292 LN01391661 MCULE-1548270284 PubChem-5176146 ZINC000006456015
 28 31 0 0 0
SMALL
GASTEIGER

@<TRIPOS>ATOM
      1 C           8.8911   41.4725    8.4973 C.ar    1  UNL1        0.0898
      2 C          11.0294   40.6745    7.4913 C.ar    1  UNL1        0.0096
      3 C          10.1076   41.1059    6.5401 C.ar    1  UNL1       -0.0081
      4 C          10.3933   41.1182    5.0740 C.3     1  UNL1        0.0320
      5 C           8.9027   41.5629    7.1030 C.ar    1  UNL1        0.0843
      6 S          10.3727   40.8833    9.0257 S.2     1  UNL1       -0.0759
      7 C           6.4713   41.6187    9.2654 C.2     1  UNL1        0.2260
      8 N           7.8644   41.9285    9.3854 N.am    1  UNL1       -0.2784
      9 O           6.0901   40.6556    8.5488 O.2     1  UNL1       -0.2748
     10 H           8.1381   42.5006   10.1385 H       1  UNL1        0.1553
     11 C           5.4510   42.3983   10.0364 C.3     1  UNL1        0.0768
     12 C           5.1398   41.7698   11.3998 C.3     1  UNL1        0.0091
     13 C           4.2324   40.5470   11.2676 C.3     1  UNL1        0.0005
     14 C           2.9517   40.9171   10.5285 C.3     1  UNL1        0.0000
     15 C           3.2866   41.4325    9.1335 C.3     1  UNL1        0.0005
     16 C           4.1786   42.6706    9.2250 C.3     1  UNL1        0.0091
     17 C           7.8537   42.1703    6.3217 C.1     1  UNL1        0.1019
     18 N           7.0133   42.6594    5.6940 N.1     1  UNL1       -0.1908
     19 C          12.4228   40.2073    7.2215 C.3     1  UNL1        0.0590
     20 C          13.3613   41.3646    7.1670 C.ar    1  UNL1       -0.0141
     21 C          13.0462   42.4889    6.3704 C.ar    1  UNL1       -0.0006
     22 C          13.9320   43.5787    6.2901 C.ar    1  UNL1        0.0399
     23 C          15.1170   43.4979    7.0171 C.ar    1  UNL1        0.1764
     24 C          15.4234   42.4172    7.7795 C.ar    1  UNL1        0.1761
     25 C          17.1482   43.8935    7.9703 C.3     1  UNL1        0.4294
     26 C          14.5727   41.3201    7.8838 C.ar    1  UNL1        0.0363
     27 O          16.6514   42.6112    8.3796 O.3     1  UNL1       -0.4346
     28 O          16.1371   44.4241    7.1018 O.3     1  UNL1       -0.4346
@<TRIPOS>BOND
     1     1     8    1
     2     1     6   ar
     3    11     7    1
     4    11    12    1
     5    12    13    1
     6    13    14    1
     7    14    15    1
     8    15    16    1
     9    16    11    1
    10     2     6   ar
    11     3     5   ar
    12     4     3    1
    13     5    17    1
    14    19     2    1
    15    19    20    1
    16    21    22   ar
    17    23    24   ar
    18    23    28    1
    19    24    27    1
    20    25    27    1
    21    25    28    1
    22    26    20   ar
    23     8     7   am
    24     7     9    2
    25     2     3   ar
    26     5     1   ar
    27    20    21   ar
    28    22    23   ar
    29    24    26   ar
    30    17    18    3
    31     8    10    1
