@<TRIPOS>MOLECULE
MolPort-002-470-510 CSC000733563 CSSS00000733563 MCULE-4803620098 PubChem-7131767 Z139720794 ZINC04219081
 22 22 0 0 0
SMALL
GASTEIGER

@<TRIPOS>ATOM
      1 C           6.7048   42.6854    8.9090 C.ar    1  UNL1        0.1145
      2 C           7.2901   42.4493    7.6710 C.ar    1  UNL1        0.1313
      3 C           6.8100   42.9511    6.3528 C.3     1  UNL1        0.0728
      4 C           8.4892   41.3986    9.0790 C.ar    1  UNL1        0.2056
      5 C           7.4937   42.0008    9.8303 C.ar    1  UNL1        0.1112
      6 O           8.3457   41.6817    7.8054 O.2     1  UNL1       -0.4437
      7 C           7.3877   41.9722   11.3030 C.2     1  UNL1        0.2473
      8 O           6.6043   41.1601   11.8618 O.2     1  UNL1       -0.2702
      9 N           8.2062   42.8108   12.1106 N.am    1  UNL1       -0.3252
     10 H           8.8236   43.4506   11.6878 H       1  UNL1        0.1453
     11 H           8.1551   42.7511   13.0919 H       1  UNL1        0.1453
     12 C          10.7354   41.1178   10.2095 C.2     1  UNL1        0.2448
     13 O          10.9139   42.3600   10.3186 O.2     1  UNL1       -0.2733
     14 N           9.5474   40.5941    9.6096 N.am    1  UNL1       -0.2541
     15 H           9.4511   39.6156    9.5582 H       1  UNL1        0.1577
     16 C          11.7584   40.1808   10.7445 C.3     1  UNL1        0.1798
     17 CL         13.3148   40.4609    9.9289 Cl      1  UNL1       -0.1033
     18 C           5.4503   43.4260    9.1503 C.2     1  UNL1        0.3442
     19 O           5.3187   44.5979    8.7022 O.2     1  UNL1       -0.2448
     20 O           4.3973   42.8159    9.8329 O.3     1  UNL1       -0.4454
     21 C           3.6389   40.5823   10.2473 C.3     1  UNL1        0.0513
     22 C           3.6608   41.7399    9.2721 C.3     1  UNL1        0.2089
@<TRIPOS>BOND
     1    21    22    1
     2    22    20    1
     3    18    20    1
     4    18     1    1
     5     2     6   ar
     6     3     2    1
     7     4     6   ar
     8     4    14    1
     9    16    12    1
    10    16    17    1
    11     5     7    1
    12     5     1   ar
    13     7     9   am
    14    14    12   am
    15    18    19    2
    16     1     2   ar
    17     4     5   ar
    18    12    13    2
    19     7     8    2
    20    14    15    1
    21     9    10    1
    22     9    11    1
@<TRIPOS>MOLECULE
MolPort-002-470-510 CSC000733563 CSSS00000733563 MCULE-4803620098 PubChem-7131767 Z139720794 ZINC04219081
 22 22 0 0 0
SMALL
GASTEIGER

@<TRIPOS>ATOM
      1 C           7.9970   42.5818    8.4954 C.ar    1  UNL1        0.1145
      2 C           8.1523   41.5909    7.5338 C.ar    1  UNL1        0.1313
      3 C           7.1104   41.1026    6.5871 C.3     1  UNL1        0.0728
      4 C          10.0301   41.7249    8.5236 C.ar    1  UNL1        0.2056
      5 C           9.2287   42.6718    9.1394 C.ar    1  UNL1        0.1112
      6 O           9.3689   41.1014    7.5767 O.2     1  UNL1       -0.4437
      7 C           9.6611   43.6178   10.1878 C.2     1  UNL1        0.2473
      8 O          10.8210   44.1066   10.1546 O.2     1  UNL1       -0.2702
      9 N           8.7628   44.0367   11.2090 N.am    1  UNL1       -0.3252
     10 H           7.8527   43.6632   11.2477 H       1  UNL1        0.1453
     11 H           9.0515   44.6999   11.8768 H       1  UNL1        0.1453
     12 C          11.8293   40.5356    9.8468 C.2     1  UNL1        0.2448
     13 O          10.9955   39.8568   10.5031 O.2     1  UNL1       -0.2733
     14 N          11.3996   41.4679    8.8510 N.am    1  UNL1       -0.2541
     15 H          12.0914   41.9658    8.3583 H       1  UNL1        0.1577
     16 C          13.2837   40.3391   10.0852 C.3     1  UNL1        0.1798
     17 CL         13.5253   39.3574   11.5494 Cl      1  UNL1       -0.1033
     18 C           6.7448   43.2977    8.8116 C.2     1  UNL1        0.3442
     19 O           6.6894   44.5510    8.6795 O.2     1  UNL1       -0.2448
     20 O           5.6134   42.5860    9.2122 O.3     1  UNL1       -0.4454
     21 C           3.2732   42.1249    9.4278 C.3     1  UNL1        0.0513
     22 C           4.3356   43.1965    9.3074 C.3     1  UNL1        0.2089
@<TRIPOS>BOND
     1    21    22    1
     2    22    20    1
     3    18    20    1
     4    18     1    1
     5     2     6   ar
     6     3     2    1
     7     4     6   ar
     8     4    14    1
     9    16    12    1
    10    16    17    1
    11     5     7    1
    12     5     1   ar
    13     7     9   am
    14    14    12   am
    15    18    19    2
    16     1     2   ar
    17     4     5   ar
    18    12    13    2
    19     7     8    2
    20    14    15    1
    21     9    10    1
    22     9    11    1
@<TRIPOS>MOLECULE
MolPort-002-470-510 CSC000733563 CSSS00000733563 MCULE-4803620098 PubChem-7131767 Z139720794 ZINC04219081
 22 22 0 0 0
SMALL
GASTEIGER

@<TRIPOS>ATOM
      1 C           9.5439   42.2581    8.4077 C.ar    1  UNL1        0.1145
      2 C          10.0169   42.9172    9.5358 C.ar    1  UNL1        0.1313
      3 C           9.1933   43.5650   10.5952 C.3     1  UNL1        0.0728
      4 C          11.7492   42.2906    8.4727 C.ar    1  UNL1        0.2056
      5 C          10.6792   41.8442    7.7151 C.ar    1  UNL1        0.1112
      6 O          11.3290   42.9205    9.5447 O.2     1  UNL1       -0.4437
      7 C          10.7718   41.0253    6.4897 C.2     1  UNL1        0.2473
      8 O          10.8690   39.7729    6.5757 O.2     1  UNL1       -0.2702
      9 N          10.6917   41.6261    5.2021 N.am    1  UNL1       -0.3252
     10 H          10.6154   42.6041    5.1191 H       1  UNL1        0.1453
     11 H          10.7125   41.0637    4.3943 H       1  UNL1        0.1453
     12 C          13.8737   42.8825    7.2321 C.2     1  UNL1        0.2448
     13 O          13.3401   43.8599    6.6432 O.2     1  UNL1       -0.2733
     14 N          13.1283   42.0805    8.1524 N.am    1  UNL1       -0.2541
     15 H          13.5946   41.3347    8.5947 H       1  UNL1        0.1577
     16 C          15.3097   42.5791    6.9945 C.3     1  UNL1        0.1798
     17 CL         16.2875   44.0376    7.2820 Cl      1  UNL1       -0.1033
     18 C           8.1291   42.1311    8.0045 C.2     1  UNL1        0.3442
     19 O           7.5380   43.1121    7.4757 O.2     1  UNL1       -0.2448
     20 O           7.4613   40.9167    8.1664 O.3     1  UNL1       -0.4454
     21 C           6.5410   39.7267    6.3029 C.3     1  UNL1        0.0513
     22 C           6.2506   40.6274    7.4843 C.3     1  UNL1        0.2089
@<TRIPOS>BOND
     1    21    22    1
     2    22    20    1
     3    18    20    1
     4    18     1    1
     5     2     6   ar
     6     3     2    1
     7     4     6   ar
     8     4    14    1
     9    16    12    1
    10    16    17    1
    11     5     7    1
    12     5     1   ar
    13     7     9   am
    14    14    12   am
    15    18    19    2
    16     1     2   ar
    17     4     5   ar
    18    12    13    2
    19     7     8    2
    20    14    15    1
    21     9    10    1
    22     9    11    1
@<TRIPOS>MOLECULE
MolPort-002-470-510 CSC000733563 CSSS00000733563 MCULE-4803620098 PubChem-7131767 Z139720794 ZINC04219081
 22 22 0 0 0
SMALL
GASTEIGER

@<TRIPOS>ATOM
      1 C          12.2282   40.3350    8.8998 C.ar    1  UNL1        0.1145
      2 C          13.4600   40.3329    9.5428 C.ar    1  UNL1        0.1313
      3 C          13.8028   39.6110   10.8004 C.3     1  UNL1        0.0728
      4 C          13.7025   41.5967    7.8494 C.ar    1  UNL1        0.2056
      5 C          12.3899   41.1591    7.7887 C.ar    1  UNL1        0.1112
      6 O          14.3128   41.0916    8.8957 O.2     1  UNL1       -0.4437
      7 C          11.4312   41.4547    6.7049 C.2     1  UNL1        0.2473
      8 O          10.3547   42.0545    6.9634 O.2     1  UNL1       -0.2702
      9 N          11.7322   41.1251    5.3536 N.am    1  UNL1       -0.3252
     10 H          12.5701   40.6561    5.1362 H       1  UNL1        0.1453
     11 H          11.1024   41.3659    4.6362 H       1  UNL1        0.1453
     12 C          15.6410   43.0063    7.0384 C.2     1  UNL1        0.2448
     13 O          16.3517   42.7304    8.0412 O.2     1  UNL1       -0.2733
     14 N          14.3256   42.4631    6.8956 N.am    1  UNL1       -0.2541
     15 H          13.8152   42.7009    6.0881 H       1  UNL1        0.1577
     16 C          16.1907   43.8812    5.9692 C.3     1  UNL1        0.1798
     17 CL         15.1669   45.3253    5.7889 Cl      1  UNL1       -0.1033
     18 C          10.9971   39.6744    9.3776 C.2     1  UNL1        0.3442
     19 O          10.9534   38.4164    9.4613 O.2     1  UNL1       -0.2448
     20 O           9.9015   40.4404    9.7776 O.3     1  UNL1       -0.4454
     21 C          10.2963   41.2189   12.0078 C.3     1  UNL1        0.0513
     22 C          10.0501   41.6109   10.5665 C.3     1  UNL1        0.2089
@<TRIPOS>BOND
     1    21    22    1
     2    22    20    1
     3    18    20    1
     4    18     1    1
     5     2     6   ar
     6     3     2    1
     7     4     6   ar
     8     4    14    1
     9    16    12    1
    10    16    17    1
    11     5     7    1
    12     5     1   ar
    13     7     9   am
    14    14    12   am
    15    18    19    2
    16     1     2   ar
    17     4     5   ar
    18    12    13    2
    19     7     8    2
    20    14    15    1
    21     9    10    1
    22     9    11    1
@<TRIPOS>MOLECULE
MolPort-002-470-510 CSC000733563 CSSS00000733563 MCULE-4803620098 PubChem-7131767 Z139720794 ZINC04219081
 22 22 0 0 0
SMALL
GASTEIGER

@<TRIPOS>ATOM
      1 C           9.1779   41.8052    9.4165 C.ar    1  UNL1        0.1145
      2 C           8.9446   41.6901    8.0515 C.ar    1  UNL1        0.1313
      3 C           9.9758   41.6172    6.9785 C.3     1  UNL1        0.0728
      4 C           7.0206   41.7740    8.9542 C.ar    1  UNL1        0.2056
      5 C           7.9172   41.8552   10.0065 C.ar    1  UNL1        0.1112
      6 O           7.6551   41.6756    7.8096 O.2     1  UNL1       -0.4437
      7 C           7.5641   41.8904   11.4401 C.2     1  UNL1        0.2473
      8 O           6.6201   41.1787   11.8733 O.2     1  UNL1       -0.2702
      9 N           8.3168   42.6748   12.3585 N.am    1  UNL1       -0.3252
     10 H           9.0578   43.2362   12.0345 H       1  UNL1        0.1453
     11 H           8.0965   42.6560   13.3179 H       1  UNL1        0.1453
     12 C           4.7880   42.9543    9.1126 C.2     1  UNL1        0.2448
     13 O           5.3060   44.0975    9.0042 O.2     1  UNL1       -0.2733
     14 N           5.5953   41.7741    9.0861 N.am    1  UNL1       -0.2541
     15 H           5.1407   40.9042    9.1636 H       1  UNL1        0.1577
     16 C           3.3115   42.8276    9.2342 C.3     1  UNL1        0.1798
     17 CL          2.8799   41.1361    9.5781 Cl      1  UNL1       -0.1033
     18 C          10.4974   41.9465   10.0639 C.2     1  UNL1        0.3442
     19 O          11.1949   42.9749    9.8464 O.2     1  UNL1       -0.2448
     20 O          10.9520   40.9673   10.9480 O.3     1  UNL1       -0.4454
     21 C          13.0671   39.8501   10.8315 C.3     1  UNL1        0.0513
     22 C          11.5926   39.7844   10.4954 C.3     1  UNL1        0.2089
@<TRIPOS>BOND
     1    21    22    1
     2    22    20    1
     3    18    20    1
     4    18     1    1
     5     2     6   ar
     6     3     2    1
     7     4     6   ar
     8     4    14    1
     9    16    12    1
    10    16    17    1
    11     5     7    1
    12     5     1   ar
    13     7     9   am
    14    14    12   am
    15    18    19    2
    16     1     2   ar
    17     4     5   ar
    18    12    13    2
    19     7     8    2
    20    14    15    1
    21     9    10    1
    22     9    11    1
@<TRIPOS>MOLECULE
MolPort-002-470-510 CSC000733563 CSSS00000733563 MCULE-4803620098 PubChem-7131767 Z139720794 ZINC04219081
 22 22 0 0 0
SMALL
GASTEIGER

@<TRIPOS>ATOM
      1 C           8.7821   41.4503    8.6572 C.ar    1  UNL1        0.1145
      2 C           9.0217   40.3116    7.8979 C.ar    1  UNL1        0.1313
      3 C           8.3005   39.9032    6.6596 C.3     1  UNL1        0.0728
      4 C          10.3940   40.2150    9.5200 C.ar    1  UNL1        0.2056
      5 C           9.6846   41.3881    9.7163 C.ar    1  UNL1        0.1112
      6 O           9.9826   39.5989    8.4366 O.2     1  UNL1       -0.4437
      7 C           9.9327   42.3780   10.7837 C.2     1  UNL1        0.2473
      8 O          10.6214   43.4041   10.5427 O.2     1  UNL1       -0.2702
      9 N           9.3521   42.2220   12.0737 N.am    1  UNL1       -0.3252
     10 H           8.8110   41.4250   12.2768 H       1  UNL1        0.1453
     11 H           9.4915   42.9111   12.7629 H       1  UNL1        0.1453
     12 C          12.8181   40.1328   10.2407 C.2     1  UNL1        0.2448
     13 O          13.1804   40.9571    9.3596 O.2     1  UNL1       -0.2733
     14 N          11.4483   39.7403   10.3637 N.am    1  UNL1       -0.2541
     15 H          11.2152   39.1016   11.0757 H       1  UNL1        0.1577
     16 C          13.8233   39.5864   11.1903 C.3     1  UNL1        0.1798
     17 CL         13.6453   37.8196   11.3030 Cl      1  UNL1       -0.1033
     18 C           7.7166   42.4448    8.4204 C.2     1  UNL1        0.3442
     19 O           7.7702   43.1902    7.4040 O.2     1  UNL1       -0.2448
     20 O           6.6312   42.5294    9.2932 O.3     1  UNL1       -0.4454
     21 C           5.9325   41.3457   11.2544 C.3     1  UNL1        0.0513
     22 C           5.9346   41.3766    9.7410 C.3     1  UNL1        0.2089
@<TRIPOS>BOND
     1    21    22    1
     2    22    20    1
     3    18    20    1
     4    18     1    1
     5     2     6   ar
     6     3     2    1
     7     4     6   ar
     8     4    14    1
     9    16    12    1
    10    16    17    1
    11     5     7    1
    12     5     1   ar
    13     7     9   am
    14    14    12   am
    15    18    19    2
    16     1     2   ar
    17     4     5   ar
    18    12    13    2
    19     7     8    2
    20    14    15    1
    21     9    10    1
    22     9    11    1
@<TRIPOS>MOLECULE
MolPort-002-470-510 CSC000733563 CSSS00000733563 MCULE-4803620098 PubChem-7131767 Z139720794 ZINC04219081
 22 22 0 0 0
SMALL
GASTEIGER

@<TRIPOS>ATOM
      1 C          10.4083   40.0278    6.5820 C.ar    1  UNL1        0.1145
      2 C           9.8687   38.9388    7.2554 C.ar    1  UNL1        0.1313
      3 C           8.5591   38.2844    6.9779 C.3     1  UNL1        0.0728
      4 C          11.7248   39.3397    8.2136 C.ar    1  UNL1        0.2056
      5 C          11.6257   40.2861    7.2073 C.ar    1  UNL1        0.1112
      6 O          10.6729   38.5548    8.2184 O.2     1  UNL1       -0.4437
      7 C          12.6602   41.2780    6.8510 C.2     1  UNL1        0.2473
      8 O          13.7519   41.3016    7.4780 O.2     1  UNL1       -0.2702
      9 N          12.4679   42.1752    5.7631 N.am    1  UNL1       -0.3252
     10 H          11.6196   42.1683    5.2635 H       1  UNL1        0.1453
     11 H          13.1831   42.8027    5.5102 H       1  UNL1        0.1453
     12 C          12.8172   39.6644   10.4727 C.2     1  UNL1        0.2448
     13 O          11.7942   40.2087   10.9668 O.2     1  UNL1       -0.2733
     14 N          12.8281   39.2112    9.1162 N.am    1  UNL1       -0.2541
     15 H          13.6487   38.7826    8.7813 H       1  UNL1        0.1577
     16 C          14.0197   39.4575   11.3224 C.3     1  UNL1        0.1798
     17 CL         14.1773   37.7328   11.7307 Cl      1  UNL1       -0.1033
     18 C           9.7545   40.7925    5.5011 C.2     1  UNL1        0.3442
     19 O           9.3699   41.9748    5.7146 O.2     1  UNL1       -0.2448
     20 O           9.6028   40.2255    4.2352 O.3     1  UNL1       -0.4454
     21 C           9.9046   38.0386    3.3066 C.3     1  UNL1        0.0513
     22 C          10.5702   39.3445    3.6849 C.3     1  UNL1        0.2089
@<TRIPOS>BOND
     1    21    22    1
     2    22    20    1
     3    18    20    1
     4    18     1    1
     5     2     6   ar
     6     3     2    1
     7     4     6   ar
     8     4    14    1
     9    16    12    1
    10    16    17    1
    11     5     7    1
    12     5     1   ar
    13     7     9   am
    14    14    12   am
    15    18    19    2
    16     1     2   ar
    17     4     5   ar
    18    12    13    2
    19     7     8    2
    20    14    15    1
    21     9    10    1
    22     9    11    1
@<TRIPOS>MOLECULE
MolPort-002-470-510 CSC000733563 CSSS00000733563 MCULE-4803620098 PubChem-7131767 Z139720794 ZINC04219081
 22 22 0 0 0
SMALL
GASTEIGER

@<TRIPOS>ATOM
      1 C          13.7798   40.3243    9.5899 C.ar    1  UNL1        0.1145
      2 C          13.2851   39.7704   10.7643 C.ar    1  UNL1        0.1313
      3 C          14.0829   39.1311   11.8482 C.3     1  UNL1        0.0728
      4 C          11.5794   40.4533    9.6927 C.ar    1  UNL1        0.2056
      5 C          12.6622   40.7753    8.8915 C.ar    1  UNL1        0.1112
      6 O          11.9765   39.8613   10.7947 O.2     1  UNL1       -0.4437
      7 C          12.6020   41.5228    7.6193 C.2     1  UNL1        0.2473
      8 O          11.9242   41.0745    6.6576 O.2     1  UNL1       -0.2702
      9 N          13.2524   42.7809    7.4800 N.am    1  UNL1       -0.3252
     10 H          13.7859   43.1442    8.2235 H       1  UNL1        0.1453
     11 H          13.1689   43.2879    6.6403 H       1  UNL1        0.1453
     12 C           9.4950   41.8759    9.8766 C.2     1  UNL1        0.2448
     13 O          10.0528   42.7195   10.6276 O.2     1  UNL1       -0.2733
     14 N          10.2121   40.7414    9.3825 N.am    1  UNL1       -0.2541
     15 H           9.7338   40.1174    8.7900 H       1  UNL1        0.1577
     16 C           8.0801   42.0810    9.4682 C.3     1  UNL1        0.1798
     17 CL          7.6142   40.8466    8.2744 Cl      1  UNL1       -0.1033
     18 C          15.1913   40.3253    9.1565 C.2     1  UNL1        0.3442
     19 O          15.8349   39.2411    9.1161 O.2     1  UNL1       -0.2448
     20 O          15.7982   41.5144    8.7503 O.3     1  UNL1       -0.4454
     21 C          17.5047   43.1893    8.6153 C.3     1  UNL1        0.0513
     22 C          17.1928   41.7348    8.8958 C.3     1  UNL1        0.2089
@<TRIPOS>BOND
     1    21    22    1
     2    22    20    1
     3    18    20    1
     4    18     1    1
     5     2     6   ar
     6     3     2    1
     7     4     6   ar
     8     4    14    1
     9    16    12    1
    10    16    17    1
    11     5     7    1
    12     5     1   ar
    13     7     9   am
    14    14    12   am
    15    18    19    2
    16     1     2   ar
    17     4     5   ar
    18    12    13    2
    19     7     8    2
    20    14    15    1
    21     9    10    1
    22     9    11    1
@<TRIPOS>MOLECULE
MolPort-002-470-510 CSC000733563 CSSS00000733563 MCULE-4803620098 PubChem-7131767 Z139720794 ZINC04219081
 22 22 0 0 0
SMALL
GASTEIGER

@<TRIPOS>ATOM
      1 C           8.4025   41.1120    8.7293 C.ar    1  UNL1        0.1145
      2 C           9.7144   41.0517    9.1832 C.ar    1  UNL1        0.1313
      3 C          10.2525   41.6734   10.4258 C.3     1  UNL1        0.0728
      4 C           9.6959   39.9784    7.3470 C.ar    1  UNL1        0.2056
      5 C           8.3909   40.4048    7.5295 C.ar    1  UNL1        0.1112
      6 O          10.4571   40.3735    8.3406 O.2     1  UNL1       -0.4437
      7 C           7.2456   40.0744    6.6577 C.2     1  UNL1        0.2473
      8 O           7.1730   38.9396    6.1171 O.2     1  UNL1       -0.2702
      9 N           6.1834   41.0017    6.4647 N.am    1  UNL1       -0.3252
     10 H           6.2262   41.8928    6.8811 H       1  UNL1        0.1453
     11 H           5.4059   40.7522    5.9148 H       1  UNL1        0.1453
     12 C          10.3650   39.7054    4.9221 C.2     1  UNL1        0.2448
     13 O          10.1558   40.9187    4.6554 O.2     1  UNL1       -0.2733
     14 N          10.1584   39.1949    6.2421 N.am    1  UNL1       -0.2541
     15 H          10.3468   38.2418    6.4011 H       1  UNL1        0.1577
     16 C          10.8684   38.7976    3.8576 C.3     1  UNL1        0.1798
     17 CL          9.4961   38.0749    2.9856 Cl      1  UNL1       -0.1033
     18 C           7.2987   41.8642    9.3586 C.2     1  UNL1        0.3442
     19 O           7.3633   43.1216    9.4387 O.2     1  UNL1       -0.2448
     20 O           6.1680   41.1911    9.8228 O.3     1  UNL1       -0.4454
     21 C           4.3801   40.6237   11.3118 C.3     1  UNL1        0.0513
     22 C           5.7252   41.3027   11.1668 C.3     1  UNL1        0.2089
@<TRIPOS>BOND
     1    21    22    1
     2    22    20    1
     3    18    20    1
     4    18     1    1
     5     2     6   ar
     6     3     2    1
     7     4     6   ar
     8     4    14    1
     9    16    12    1
    10    16    17    1
    11     5     7    1
    12     5     1   ar
    13     7     9   am
    14    14    12   am
    15    18    19    2
    16     1     2   ar
    17     4     5   ar
    18    12    13    2
    19     7     8    2
    20    14    15    1
    21     9    10    1
    22     9    11    1
@<TRIPOS>MOLECULE
MolPort-002-470-510 CSC000733563 CSSS00000733563 MCULE-4803620098 PubChem-7131767 Z139720794 ZINC04219081
 22 22 0 0 0
SMALL
GASTEIGER

@<TRIPOS>ATOM
      1 C          10.2544   41.9373    9.7689 C.ar    1  UNL1        0.1145
      2 C          10.3238   41.2728   10.9873 C.ar    1  UNL1        0.1313
      3 C           9.2777   41.2540   12.0481 C.3     1  UNL1        0.0728
      4 C          12.1765   40.8828   10.0182 C.ar    1  UNL1        0.2056
      5 C          11.4662   41.6771    9.1335 C.ar    1  UNL1        0.1112
      6 O          11.4768   40.6580   11.1056 O.2     1  UNL1       -0.4437
      7 C          11.9042   42.0617    7.7766 C.2     1  UNL1        0.2473
      8 O          13.0272   42.6057    7.6085 O.2     1  UNL1       -0.2702
      9 N          11.0991   41.7713    6.6396 N.am    1  UNL1       -0.3252
     10 H          10.2188   41.3461    6.7554 H       1  UNL1        0.1453
     11 H          11.4226   41.9955    5.7372 H       1  UNL1        0.1453
     12 C          14.2247   39.5766   10.7261 C.2     1  UNL1        0.2448
     13 O          13.7395   39.2923   11.8533 O.2     1  UNL1       -0.2733
     14 N          13.4858   40.3552    9.7810 N.am    1  UNL1       -0.2541
     15 H          13.9053   40.5406    8.9099 H       1  UNL1        0.1577
     16 C          15.5715   39.0651   10.3581 C.3     1  UNL1        0.1798
     17 CL         15.4068   37.6775    9.2564 Cl      1  UNL1       -0.1033
     18 C           9.1539   42.8122    9.3174 C.2     1  UNL1        0.3442
     19 O           8.9632   43.9224    9.8854 O.2     1  UNL1       -0.2448
     20 O           8.3560   42.4330    8.2373 O.3     1  UNL1       -0.4454
     21 C           6.9752   43.3004    6.4833 C.3     1  UNL1        0.0513
     22 C           7.1072   43.0527    7.9708 C.3     1  UNL1        0.2089
@<TRIPOS>BOND
     1    21    22    1
     2    22    20    1
     3    18    20    1
     4    18     1    1
     5     2     6   ar
     6     3     2    1
     7     4     6   ar
     8     4    14    1
     9    16    12    1
    10    16    17    1
    11     5     7    1
    12     5     1   ar
    13     7     9   am
    14    14    12   am
    15    18    19    2
    16     1     2   ar
    17     4     5   ar
    18    12    13    2
    19     7     8    2
    20    14    15    1
    21     9    10    1
    22     9    11    1
