@<TRIPOS>MOLECULE
MolPort-021-778-309 72437814 CSC048524567 CSSS00048524567 MCULE-7639738129 PubChem-56921464 ZINC000072437814 ZINC72437814
 25 27 0 0 0
SMALL
GASTEIGER

@<TRIPOS>ATOM
      1 C          16.7206   36.1413   11.9784 C.2     1  UNL1        0.2495
      2 O          17.5676   35.5230   11.2776 O.2     1  UNL1       -0.2698
      3 N          16.6602   35.9391   13.3988 N.am    1  UNL1       -0.2804
      4 H          15.9877   36.4642   13.8898 H       1  UNL1        0.1552
      5 C          17.6134   33.1563   15.6884 C.ar    1  UNL1        0.0085
      6 C          19.0077   33.2734   15.7134 C.ar    1  UNL1       -0.0018
      7 C          19.6373   34.2798   14.9768 C.ar    1  UNL1        0.0010
      8 C          18.8741   35.1666   14.2120 C.ar    1  UNL1        0.0147
      9 C          17.4757   35.0533   14.1778 C.ar    1  UNL1        0.0503
     10 C          16.8533   34.0426   14.9186 C.ar    1  UNL1        0.0128
     11 C          16.9350   32.0757   16.4569 C.3     1  UNL1        0.1687
     12 C          14.8674   31.7690   15.7516 C.3     1  UNL1        0.1746
     13 O          16.1671   31.2876   15.5986 O.3     1  UNL1       -0.3463
     14 C          15.7833   37.0778   11.3338 C.ar    1  UNL1        0.0538
     15 C          14.8830   36.6219   10.3621 C.ar    1  UNL1        0.0058
     16 C          13.9965   37.5099    9.7473 C.ar    1  UNL1        0.0147
     17 C          13.9952   38.8718   10.0906 C.ar    1  UNL1        0.0480
     18 C          14.8968   39.3232   11.0679 C.ar    1  UNL1        0.0147
     19 C          15.7829   38.4351   11.6831 C.ar    1  UNL1        0.0058
     20 C          11.6694   39.4220    9.2831 C.3     1  UNL1        0.1231
     21 C          11.1119   40.1229    8.0440 C.3     1  UNL1        0.1636
     22 C          12.7299   41.6844    7.9594 C.3     1  UNL1        0.1636
     23 C          13.4752   41.1706    9.1910 C.3     1  UNL1        0.1231
     24 O          11.3464   41.5061    8.1319 O.3     1  UNL1       -0.3501
     25 N          13.0776   39.7862    9.4608 N.pl3   1  UNL1       -0.3028
@<TRIPOS>BOND
     1    12    13    1
     2    11    13    1
     3    11     5    1
     4     6     7   ar
     5     8     9   ar
     6     9     3    1
     7     1    14    1
     8    15    16   ar
     9    17    18   ar
    10    17    25    1
    11    19    14   ar
    12    20    25    1
    13    20    21    1
    14    21    24    1
    15    22    24    1
    16    22    23    1
    17    23    25    1
    18    10     5   ar
    19     3     1   am
    20     5     6   ar
    21     7     8   ar
    22     9    10   ar
    23     1     2    2
    24    14    15   ar
    25    16    17   ar
    26    18    19   ar
    27     3     4    1
@<TRIPOS>MOLECULE
MolPort-021-778-309 72437814 CSC048524567 CSSS00048524567 MCULE-7639738129 PubChem-56921464 ZINC000072437814 ZINC72437814
 25 27 0 0 0
SMALL
GASTEIGER

@<TRIPOS>ATOM
      1 C           9.2829   42.7212    9.7587 C.2     1  UNL1        0.2495
      2 O           9.1779   43.8404   10.3306 O.2     1  UNL1       -0.2698
      3 N           8.1957   42.1915    8.9845 N.am    1  UNL1       -0.2804
      4 H           8.3478   41.3211    8.5503 H       1  UNL1        0.1552
      5 C           4.4986   42.6665    9.0195 C.ar    1  UNL1        0.0085
      6 C           4.3676   43.9229    8.4174 C.ar    1  UNL1       -0.0018
      7 C           5.5038   44.6149    7.9910 C.ar    1  UNL1        0.0010
      8 C           6.7713   44.0534    8.1697 C.ar    1  UNL1        0.0147
      9 C           6.9119   42.7959    8.7767 C.ar    1  UNL1        0.0503
     10 C           5.7687   42.1096    9.2007 C.ar    1  UNL1        0.0128
     11 C           3.2940   41.9294    9.4927 C.3     1  UNL1        0.1687
     12 C           3.2276   41.8461   11.6962 C.3     1  UNL1        0.1746
     13 O           2.7473   42.5701   10.6055 O.3     1  UNL1       -0.3463
     14 C          10.5315   41.9494    9.8875 C.ar    1  UNL1        0.0538
     15 C          10.6971   41.0416   10.9417 C.ar    1  UNL1        0.0058
     16 C          11.8822   40.3121   11.0671 C.ar    1  UNL1        0.0147
     17 C          12.9258   40.4785   10.1421 C.ar    1  UNL1        0.0480
     18 C          12.7536   41.3867    9.0851 C.ar    1  UNL1        0.0147
     19 C          11.5683   42.1158    8.9593 C.ar    1  UNL1        0.0058
     20 C          14.1882   38.5127   11.0941 C.3     1  UNL1        0.1231
     21 C          15.5986   38.3245   11.6535 C.3     1  UNL1        0.1636
     22 C          16.5868   39.6719   10.1466 C.3     1  UNL1        0.1636
     23 C          15.2940   40.0150    9.4067 C.3     1  UNL1        0.1231
     24 O          16.5346   38.3443   10.6050 O.3     1  UNL1       -0.3501
     25 N          14.1454   39.7225   10.2683 N.pl3   1  UNL1       -0.3028
@<TRIPOS>BOND
     1    12    13    1
     2    11    13    1
     3    11     5    1
     4     6     7   ar
     5     8     9   ar
     6     9     3    1
     7     1    14    1
     8    15    16   ar
     9    17    18   ar
    10    17    25    1
    11    19    14   ar
    12    20    25    1
    13    20    21    1
    14    21    24    1
    15    22    24    1
    16    22    23    1
    17    23    25    1
    18    10     5   ar
    19     3     1   am
    20     5     6   ar
    21     7     8   ar
    22     9    10   ar
    23     1     2    2
    24    14    15   ar
    25    16    17   ar
    26    18    19   ar
    27     3     4    1
@<TRIPOS>MOLECULE
MolPort-021-778-309 72437814 CSC048524567 CSSS00048524567 MCULE-7639738129 PubChem-56921464 ZINC000072437814 ZINC72437814
 25 27 0 0 0
SMALL
GASTEIGER

@<TRIPOS>ATOM
      1 C           9.0181   41.4794    8.4628 C.2     1  UNL1        0.2495
      2 O           8.4712   40.4430    7.9964 O.2     1  UNL1       -0.2698
      3 N           8.3201   42.3161    9.3981 N.am    1  UNL1       -0.2804
      4 H           8.8090   43.1007    9.7367 H       1  UNL1        0.1552
      5 C           4.6120   42.5883    9.6641 C.ar    1  UNL1        0.0085
      6 C           4.3488   41.7985   10.7890 C.ar    1  UNL1       -0.0018
      7 C           5.4002   41.1780   11.4681 C.ar    1  UNL1        0.0010
      8 C           6.7142   41.3433   11.0211 C.ar    1  UNL1        0.0147
      9 C           6.9864   42.1299    9.8912 C.ar    1  UNL1        0.0503
     10 C           5.9275   42.7479    9.2170 C.ar    1  UNL1        0.0128
     11 C           3.4956   43.2394    8.9238 C.3     1  UNL1        0.1687
     12 C           3.7041   44.9768    7.5805 C.3     1  UNL1        0.1746
     13 O           3.6616   44.6250    8.9292 O.3     1  UNL1       -0.3463
     14 C          10.3847   41.8360    8.0428 C.ar    1  UNL1        0.0538
     15 C          10.7944   41.6323    6.7187 C.ar    1  UNL1        0.0058
     16 C          12.0913   41.9664    6.3204 C.ar    1  UNL1        0.0147
     17 C          13.0046   42.5082    7.2395 C.ar    1  UNL1        0.0480
     18 C          12.5882   42.7141    8.5646 C.ar    1  UNL1        0.0147
     19 C          11.2910   42.3806    8.9628 C.ar    1  UNL1        0.0058
     20 C          15.5027   42.2975    7.5215 C.3     1  UNL1        0.1231
     21 C          16.6686   43.2836    7.4447 C.3     1  UNL1        0.1636
     22 C          15.8271   44.4450    5.7110 C.3     1  UNL1        0.1636
     23 C          14.5647   43.5931    5.5802 C.3     1  UNL1        0.1231
     24 O          16.9075   43.6371    6.1054 O.3     1  UNL1       -0.3501
     25 N          14.3400   42.8577    6.8275 N.pl3   1  UNL1       -0.3028
@<TRIPOS>BOND
     1    12    13    1
     2    11    13    1
     3    11     5    1
     4     6     7   ar
     5     8     9   ar
     6     9     3    1
     7     1    14    1
     8    15    16   ar
     9    17    18   ar
    10    17    25    1
    11    19    14   ar
    12    20    25    1
    13    20    21    1
    14    21    24    1
    15    22    24    1
    16    22    23    1
    17    23    25    1
    18    10     5   ar
    19     3     1   am
    20     5     6   ar
    21     7     8   ar
    22     9    10   ar
    23     1     2    2
    24    14    15   ar
    25    16    17   ar
    26    18    19   ar
    27     3     4    1
@<TRIPOS>MOLECULE
MolPort-021-778-309 72437814 CSC048524567 CSSS00048524567 MCULE-7639738129 PubChem-56921464 ZINC000072437814 ZINC72437814
 25 27 0 0 0
SMALL
GASTEIGER

@<TRIPOS>ATOM
      1 C           5.6258   41.1998    9.9623 C.2     1  UNL1        0.2495
      2 O           6.7571   41.0913   10.5092 O.2     1  UNL1       -0.2698
      3 N           5.4817   41.0356    8.5430 N.am    1  UNL1       -0.2804
      4 H           4.5697   41.1162    8.1811 H       1  UNL1        0.1552
      5 C           8.8031   41.1697    6.8563 C.ar    1  UNL1        0.0085
      6 C           8.6188   40.2777    5.7939 C.ar    1  UNL1       -0.0018
      7 C           7.3904   39.6333    5.6281 C.ar    1  UNL1        0.0010
      8 C           6.3474   39.8770    6.5262 C.ar    1  UNL1        0.0147
      9 C           6.5253   40.7665    7.5970 C.ar    1  UNL1        0.0503
     10 C           7.7588   41.4078    7.7555 C.ar    1  UNL1        0.0128
     11 C          10.1148   41.8479    7.0507 C.3     1  UNL1        0.1687
     12 C          12.1383   41.0283    7.3678 C.3     1  UNL1        0.1746
     13 O          11.1257   41.1265    6.4140 O.3     1  UNL1       -0.3463
     14 C           4.4418   41.4995   10.7865 C.ar    1  UNL1        0.0538
     15 C           3.7303   42.6914   10.5967 C.ar    1  UNL1        0.0058
     16 C           2.6098   42.9785   11.3805 C.ar    1  UNL1        0.0147
     17 C           2.1807   42.0803   12.3712 C.ar    1  UNL1        0.0480
     18 C           2.8948   40.8852   12.5551 C.ar    1  UNL1        0.0147
     19 C           4.0150   40.5979   11.7709 C.ar    1  UNL1        0.0058
     20 C           0.1064   41.3033   13.5786 C.3     1  UNL1        0.1231
     21 C          -1.3034   41.8712   13.7443 C.3     1  UNL1        0.1636
     22 C          -0.6307   44.0106   13.9280 C.3     1  UNL1        0.1636
     23 C           0.8583   43.6944   13.7890 C.3     1  UNL1        0.1231
     24 O          -1.2753   42.9706   14.6198 O.3     1  UNL1       -0.3501
     25 N           1.0223   42.3738   13.1755 N.pl3   1  UNL1       -0.3028
@<TRIPOS>BOND
     1    12    13    1
     2    11    13    1
     3    11     5    1
     4     6     7   ar
     5     8     9   ar
     6     9     3    1
     7     1    14    1
     8    15    16   ar
     9    17    18   ar
    10    17    25    1
    11    19    14   ar
    12    20    25    1
    13    20    21    1
    14    21    24    1
    15    22    24    1
    16    22    23    1
    17    23    25    1
    18    10     5   ar
    19     3     1   am
    20     5     6   ar
    21     7     8   ar
    22     9    10   ar
    23     1     2    2
    24    14    15   ar
    25    16    17   ar
    26    18    19   ar
    27     3     4    1
@<TRIPOS>MOLECULE
MolPort-021-778-309 72437814 CSC048524567 CSSS00048524567 MCULE-7639738129 PubChem-56921464 ZINC000072437814 ZINC72437814
 25 27 0 0 0
SMALL
GASTEIGER

@<TRIPOS>ATOM
      1 C           8.8840   42.1139   10.3610 C.2     1  UNL1        0.2495
      2 O           8.6703   43.3456   10.5278 O.2     1  UNL1       -0.2698
      3 N           7.7916   41.1831   10.3106 N.am    1  UNL1       -0.2804
      4 H           8.0250   40.2383   10.1615 H       1  UNL1        0.1552
      5 C           4.4567   42.7271    9.6864 C.ar    1  UNL1        0.0085
      6 C           3.6701   42.1108   10.6661 C.ar    1  UNL1       -0.0018
      7 C           4.2435   41.1860   11.5422 C.ar    1  UNL1        0.0010
      8 C           5.6019   40.8738   11.4370 C.ar    1  UNL1        0.0147
      9 C           6.3969   41.4839   10.4545 C.ar    1  UNL1        0.0503
     10 C           5.8146   42.4091    9.5812 C.ar    1  UNL1        0.0128
     11 C           3.8501   43.7013    8.7371 C.3     1  UNL1        0.1687
     12 C           5.1287   44.7491    7.2763 C.3     1  UNL1        0.1746
     13 O           4.6816   44.8131    8.5956 O.3     1  UNL1       -0.3463
     14 C          10.2667   41.6251   10.2185 C.ar    1  UNL1        0.0538
     15 C          11.0810   42.0969    9.1807 C.ar    1  UNL1        0.0058
     16 C          12.3911   41.6311    9.0423 C.ar    1  UNL1        0.0147
     17 C          12.9112   40.6823    9.9376 C.ar    1  UNL1        0.0480
     18 C          12.0924   40.2153   10.9785 C.ar    1  UNL1        0.0147
     19 C          10.7826   40.6815   11.1173 C.ar    1  UNL1        0.0058
     20 C          14.6779   38.9495   10.4279 C.3     1  UNL1        0.1231
     21 C          16.1662   39.0159   10.7717 C.3     1  UNL1        0.1636
     22 C          16.6157   40.7123    9.3635 C.3     1  UNL1        0.1636
     23 C          15.1818   40.8426    8.8501 C.3     1  UNL1        0.1231
     24 O          16.9055   39.3626    9.6276 O.3     1  UNL1       -0.3501
     25 N          14.2635   40.2061    9.7982 N.pl3   1  UNL1       -0.3028
@<TRIPOS>BOND
     1    12    13    1
     2    11    13    1
     3    11     5    1
     4     6     7   ar
     5     8     9   ar
     6     9     3    1
     7     1    14    1
     8    15    16   ar
     9    17    18   ar
    10    17    25    1
    11    19    14   ar
    12    20    25    1
    13    20    21    1
    14    21    24    1
    15    22    24    1
    16    22    23    1
    17    23    25    1
    18    10     5   ar
    19     3     1   am
    20     5     6   ar
    21     7     8   ar
    22     9    10   ar
    23     1     2    2
    24    14    15   ar
    25    16    17   ar
    26    18    19   ar
    27     3     4    1
@<TRIPOS>MOLECULE
MolPort-021-778-309 72437814 CSC048524567 CSSS00048524567 MCULE-7639738129 PubChem-56921464 ZINC000072437814 ZINC72437814
 25 27 0 0 0
SMALL
GASTEIGER

@<TRIPOS>ATOM
      1 C           4.5593   41.5007   10.4078 C.2     1  UNL1        0.2495
      2 O           4.8542   40.3389   10.0155 O.2     1  UNL1       -0.2698
      3 N           5.2852   42.6414    9.9242 N.am    1  UNL1       -0.2804
      4 H           4.9945   43.5213   10.2566 H       1  UNL1        0.1552
      5 C           8.7780   42.3898    8.6465 C.ar    1  UNL1        0.0085
      6 C           8.5941   42.5924    7.2742 C.ar    1  UNL1       -0.0018
      7 C           7.3124   42.8202    6.7674 C.ar    1  UNL1        0.0010
      8 C           6.2137   42.8416    7.6313 C.ar    1  UNL1        0.0147
      9 C           6.3887   42.6348    9.0083 C.ar    1  UNL1        0.0503
     10 C           7.6760   42.4075    9.5074 C.ar    1  UNL1        0.0128
     11 C          10.1387   42.1291    9.1932 C.3     1  UNL1        0.1687
     12 C          11.9483   40.8682    9.1462 C.3     1  UNL1        0.1746
     13 O          10.6261   40.9157    8.7056 O.3     1  UNL1       -0.3463
     14 C           3.4614   41.6893   11.3723 C.ar    1  UNL1        0.0538
     15 C           2.7741   42.9085   11.4332 C.ar    1  UNL1        0.0058
     16 C           1.7355   43.0897   12.3502 C.ar    1  UNL1        0.0147
     17 C           1.3661   42.0559   13.2260 C.ar    1  UNL1        0.0480
     18 C           2.0555   40.8344   13.1586 C.ar    1  UNL1        0.0147
     19 C           3.0936   40.6529   12.2412 C.ar    1  UNL1        0.0058
     20 C           0.4530   43.1421   15.3118 C.3     1  UNL1        0.1231
     21 C          -0.4118   42.6535   16.4740 C.3     1  UNL1        0.1636
     22 C          -1.7494   41.3726   15.1960 C.3     1  UNL1        0.1636
     23 C          -1.0455   41.7140   13.8828 C.3     1  UNL1        0.1231
     24 O          -1.7408   42.4924   16.0454 O.3     1  UNL1       -0.3501
     25 N           0.2919   42.2409   14.1677 N.pl3   1  UNL1       -0.3028
@<TRIPOS>BOND
     1    12    13    1
     2    11    13    1
     3    11     5    1
     4     6     7   ar
     5     8     9   ar
     6     9     3    1
     7     1    14    1
     8    15    16   ar
     9    17    18   ar
    10    17    25    1
    11    19    14   ar
    12    20    25    1
    13    20    21    1
    14    21    24    1
    15    22    24    1
    16    22    23    1
    17    23    25    1
    18    10     5   ar
    19     3     1   am
    20     5     6   ar
    21     7     8   ar
    22     9    10   ar
    23     1     2    2
    24    14    15   ar
    25    16    17   ar
    26    18    19   ar
    27     3     4    1
@<TRIPOS>MOLECULE
MolPort-021-778-309 72437814 CSC048524567 CSSS00048524567 MCULE-7639738129 PubChem-56921464 ZINC000072437814 ZINC72437814
 25 27 0 0 0
SMALL
GASTEIGER

@<TRIPOS>ATOM
      1 C           5.2510   41.5134   10.2327 C.2     1  UNL1        0.2495
      2 O           6.3115   41.0088   10.6926 O.2     1  UNL1       -0.2698
      3 N           5.1825   41.9508    8.8667 N.am    1  UNL1       -0.2804
      4 H           4.3211   42.3202    8.5656 H       1  UNL1        0.1552
      5 C           7.7994   40.5777    6.5946 C.ar    1  UNL1        0.0085
      6 C           8.2886   41.7404    5.9888 C.ar    1  UNL1       -0.0018
      7 C           7.7578   42.9852    6.3360 C.ar    1  UNL1        0.0010
      8 C           6.7354   43.0679    7.2856 C.ar    1  UNL1        0.0147
      9 C           6.2359   41.9064    7.8946 C.ar    1  UNL1        0.0503
     10 C           6.7734   40.6638    7.5411 C.ar    1  UNL1        0.0128
     11 C           8.3474   39.2450    6.2179 C.3     1  UNL1        0.1687
     12 C           9.5213   38.6642    4.4428 C.3     1  UNL1        0.1746
     13 O           8.2434   39.0571    4.8390 O.3     1  UNL1       -0.3463
     14 C           4.0725   41.6573   11.1053 C.ar    1  UNL1        0.0538
     15 C           3.7137   40.6286   11.9861 C.ar    1  UNL1        0.0058
     16 C           2.5940   40.7624   12.8111 C.ar    1  UNL1        0.0147
     17 C           1.8097   41.9266   12.7691 C.ar    1  UNL1        0.0480
     18 C           2.1754   42.9565   11.8875 C.ar    1  UNL1        0.0147
     19 C           3.2955   42.8230   11.0629 C.ar    1  UNL1        0.0058
     20 C          -0.6251   41.4692   13.2456 C.3     1  UNL1        0.1231
     21 C          -1.7680   42.2982   13.8321 C.3     1  UNL1        0.1636
     22 C          -0.4929   43.3209   15.3784 C.3     1  UNL1        0.1636
     23 C           0.7990   42.6090   14.9776 C.3     1  UNL1        0.1231
     24 O          -1.5850   42.4509   15.2174 O.3     1  UNL1       -0.3501
     25 N           0.6584   42.0667   13.6235 N.pl3   1  UNL1       -0.3028
@<TRIPOS>BOND
     1    12    13    1
     2    11    13    1
     3    11     5    1
     4     6     7   ar
     5     8     9   ar
     6     9     3    1
     7     1    14    1
     8    15    16   ar
     9    17    18   ar
    10    17    25    1
    11    19    14   ar
    12    20    25    1
    13    20    21    1
    14    21    24    1
    15    22    24    1
    16    22    23    1
    17    23    25    1
    18    10     5   ar
    19     3     1   am
    20     5     6   ar
    21     7     8   ar
    22     9    10   ar
    23     1     2    2
    24    14    15   ar
    25    16    17   ar
    26    18    19   ar
    27     3     4    1
@<TRIPOS>MOLECULE
MolPort-021-778-309 72437814 CSC048524567 CSSS00048524567 MCULE-7639738129 PubChem-56921464 ZINC000072437814 ZINC72437814
 25 27 0 0 0
SMALL
GASTEIGER

@<TRIPOS>ATOM
      1 C          15.3200   39.3746   10.0246 C.2     1  UNL1        0.2495
      2 O          16.0174   39.9543    9.1481 O.2     1  UNL1       -0.2698
      3 N          15.8473   38.2574   10.7566 N.am    1  UNL1       -0.2804
      4 H          15.2582   37.8603   11.4382 H       1  UNL1        0.1552
      5 C          18.7804   36.0401   11.3693 C.ar    1  UNL1        0.0085
      6 C          19.6513   36.4312   10.3461 C.ar    1  UNL1       -0.0018
      7 C          19.2726   37.4365    9.4529 C.ar    1  UNL1        0.0010
      8 C          18.0222   38.0482    9.5796 C.ar    1  UNL1        0.0147
      9 C          17.1410   37.6588   10.6001 C.ar    1  UNL1        0.0503
     10 C          17.5284   36.6512   11.4904 C.ar    1  UNL1        0.0128
     11 C          19.1689   34.9573   12.3153 C.3     1  UNL1        0.1687
     12 C          19.4256   34.3873   14.4309 C.3     1  UNL1        0.1746
     13 O          18.7270   35.2652   13.6028 O.3     1  UNL1       -0.3463
     14 C          13.9513   39.8465   10.2988 C.ar    1  UNL1        0.0538
     15 C          13.2700   39.4158   11.4447 C.ar    1  UNL1        0.0058
     16 C          11.9707   39.8596   11.7035 C.ar    1  UNL1        0.0147
     17 C          11.3264   40.7406   10.8197 C.ar    1  UNL1        0.0480
     18 C          12.0147   41.1725    9.6745 C.ar    1  UNL1        0.0147
     19 C          13.3143   40.7292    9.4160 C.ar    1  UNL1        0.0058
     20 C           9.4436   41.1489   12.4485 C.3     1  UNL1        0.1231
     21 C           7.9259   40.9760   12.3847 C.3     1  UNL1        0.1636
     22 C           7.7400   41.6744   10.2537 C.3     1  UNL1        0.1636
     23 C           9.2349   41.9342   10.0680 C.3     1  UNL1        0.1231
     24 O           7.3649   41.9779   11.5739 O.3     1  UNL1       -0.3501
     25 N           9.9888   41.2023   11.0894 N.pl3   1  UNL1       -0.3028
@<TRIPOS>BOND
     1    12    13    1
     2    11    13    1
     3    11     5    1
     4     6     7   ar
     5     8     9   ar
     6     9     3    1
     7     1    14    1
     8    15    16   ar
     9    17    18   ar
    10    17    25    1
    11    19    14   ar
    12    20    25    1
    13    20    21    1
    14    21    24    1
    15    22    24    1
    16    22    23    1
    17    23    25    1
    18    10     5   ar
    19     3     1   am
    20     5     6   ar
    21     7     8   ar
    22     9    10   ar
    23     1     2    2
    24    14    15   ar
    25    16    17   ar
    26    18    19   ar
    27     3     4    1
@<TRIPOS>MOLECULE
MolPort-021-778-309 72437814 CSC048524567 CSSS00048524567 MCULE-7639738129 PubChem-56921464 ZINC000072437814 ZINC72437814
 25 27 0 0 0
SMALL
GASTEIGER

@<TRIPOS>ATOM
      1 C           9.3617   41.9660    8.3667 C.2     1  UNL1        0.2495
      2 O           9.2033   42.0396    7.1176 O.2     1  UNL1       -0.2698
      3 N           8.3442   42.4415    9.2615 N.am    1  UNL1       -0.2804
      4 H           8.5225   42.3399   10.2244 H       1  UNL1        0.1552
      5 C           4.6759   43.0855    9.1061 C.ar    1  UNL1        0.0085
      6 C           4.6176   44.1933    8.2531 C.ar    1  UNL1       -0.0018
      7 C           5.7934   44.7272    7.7203 C.ar    1  UNL1        0.0010
      8 C           7.0281   44.1568    8.0430 C.ar    1  UNL1        0.0147
      9 C           7.0959   43.0485    8.9013 C.ar    1  UNL1        0.0503
     10 C           5.9133   42.5200    9.4303 C.ar    1  UNL1        0.0128
     11 C           3.4288   42.5205    9.6924 C.3     1  UNL1        0.1687
     12 C           3.4642   40.4442   10.4370 C.3     1  UNL1        0.1746
     13 O           3.2631   41.1973    9.2808 O.3     1  UNL1       -0.3463
     14 C          10.6026   41.3888    8.9129 C.ar    1  UNL1        0.0538
     15 C          10.6291   40.8690   10.2135 C.ar    1  UNL1        0.0058
     16 C          11.8063   40.3251   10.7338 C.ar    1  UNL1        0.0147
     17 C          12.9807   40.2931    9.9642 C.ar    1  UNL1        0.0480
     18 C          12.9481   40.8119    8.6597 C.ar    1  UNL1        0.0147
     19 C          11.7707   41.3552    8.1392 C.ar    1  UNL1        0.0058
     20 C          15.4942   40.0819    9.9258 C.3     1  UNL1        0.1231
     21 C          16.4663   38.9152   10.1032 C.3     1  UNL1        0.1636
     22 C          15.2794   37.9197   11.7352 C.3     1  UNL1        0.1636
     23 C          14.1702   38.9713   11.7536 C.3     1  UNL1        0.1231
     24 O          16.5124   38.5336   11.4553 O.3     1  UNL1       -0.3501
     25 N          14.1929   39.7275   10.4986 N.pl3   1  UNL1       -0.3028
@<TRIPOS>BOND
     1    12    13    1
     2    11    13    1
     3    11     5    1
     4     6     7   ar
     5     8     9   ar
     6     9     3    1
     7     1    14    1
     8    15    16   ar
     9    17    18   ar
    10    17    25    1
    11    19    14   ar
    12    20    25    1
    13    20    21    1
    14    21    24    1
    15    22    24    1
    16    22    23    1
    17    23    25    1
    18    10     5   ar
    19     3     1   am
    20     5     6   ar
    21     7     8   ar
    22     9    10   ar
    23     1     2    2
    24    14    15   ar
    25    16    17   ar
    26    18    19   ar
    27     3     4    1
@<TRIPOS>MOLECULE
MolPort-021-778-309 72437814 CSC048524567 CSSS00048524567 MCULE-7639738129 PubChem-56921464 ZINC000072437814 ZINC72437814
 25 27 0 0 0
SMALL
GASTEIGER

@<TRIPOS>ATOM
      1 C          11.6682   41.7972    8.9419 C.2     1  UNL1        0.2495
      2 O          12.4831   41.1582    9.6619 O.2     1  UNL1       -0.2698
      3 N          12.1341   42.5949    7.8426 N.am    1  UNL1       -0.2804
      4 H          11.4458   43.0552    7.3100 H       1  UNL1        0.1552
      5 C          15.8539   42.3545    7.8219 C.ar    1  UNL1        0.0085
      6 C          16.1822   43.1213    6.6983 C.ar    1  UNL1       -0.0018
      7 C          15.1723   43.7271    5.9468 C.ar    1  UNL1        0.0010
      8 C          13.8340   43.5634    6.3155 C.ar    1  UNL1        0.0147
      9 C          13.4958   42.7922    7.4382 C.ar    1  UNL1        0.0503
     10 C          14.5136   42.1892    8.1854 C.ar    1  UNL1        0.0128
     11 C          16.9230   41.6908    8.6188 C.3     1  UNL1        0.1687
     12 C          17.3405   40.1422   10.1333 C.3     1  UNL1        0.1746
     13 O          16.4742   40.4549    9.0863 O.3     1  UNL1       -0.3463
     14 C          10.2253   41.7262    9.2324 C.ar    1  UNL1        0.0538
     15 C           9.3121   41.4230    8.2142 C.ar    1  UNL1        0.0058
     16 C           7.9434   41.3593    8.4877 C.ar    1  UNL1        0.0147
     17 C           7.4612   41.6004    9.7846 C.ar    1  UNL1        0.0480
     18 C           8.3807   41.9001   10.8027 C.ar    1  UNL1        0.0147
     19 C           9.7495   41.9632   10.5292 C.ar    1  UNL1        0.0058
     20 C           5.5780   41.1177   11.3922 C.3     1  UNL1        0.1231
     21 C           4.2154   40.4368   11.2605 C.3     1  UNL1        0.1636
     22 C           3.7669   41.2911    9.2278 C.3     1  UNL1        0.1636
     23 C           5.0740   42.0764    9.1220 C.3     1  UNL1        0.1231
     24 O           3.3283   41.2750   10.5630 O.3     1  UNL1       -0.3501
     25 N           6.0506   41.5295   10.0677 N.pl3   1  UNL1       -0.3028
@<TRIPOS>BOND
     1    12    13    1
     2    11    13    1
     3    11     5    1
     4     6     7   ar
     5     8     9   ar
     6     9     3    1
     7     1    14    1
     8    15    16   ar
     9    17    18   ar
    10    17    25    1
    11    19    14   ar
    12    20    25    1
    13    20    21    1
    14    21    24    1
    15    22    24    1
    16    22    23    1
    17    23    25    1
    18    10     5   ar
    19     3     1   am
    20     5     6   ar
    21     7     8   ar
    22     9    10   ar
    23     1     2    2
    24    14    15   ar
    25    16    17   ar
    26    18    19   ar
    27     3     4    1
