@<TRIPOS>MOLECULE
MolPort-005-116-032 14954796 CSSS00160028336 PubChem-26318516 ZINC000014954796
 33 36 0 0 0
SMALL
GASTEIGER

@<TRIPOS>ATOM
      1 C           9.5721   41.6731   10.3321 C.ar    1  UNL1        0.1325
      2 C          10.3112   41.6698   11.5002 C.ar    1  UNL1        0.0565
      3 C          11.0472   40.4931   11.4113 C.ar    1  UNL1        0.1230
      4 N          10.7488   39.8551   10.2599 N.ar    1  UNL1       -0.1666
      5 N           9.8577   40.5816    9.6092 N.ar    1  UNL1       -0.2394
      6 C           9.2491   40.2159    8.3323 C.3     1  UNL1        0.1093
      7 C           8.8729   41.4628    7.5156 C.3     1  UNL1        0.0418
      8 C           9.8859   41.7766    6.4120 C.3     1  UNL1        0.0744
      9 C          11.2871   39.9017    6.7887 C.3     1  UNL1        0.0744
     10 C          10.1372   39.2290    7.5614 C.3     1  UNL1        0.0418
     11 N          11.2206   41.3650    6.8290 N.3     1  UNL1       -0.2688
     12 C          12.1552   41.8702    5.8361 C.3     1  UNL1        0.0989
     13 C          13.5357   41.9089    6.4011 C.2     1  UNL1       -0.0088
     14 C          14.1976   43.0585    6.4973 C.2     1  UNL1       -0.0032
     15 C          15.5544   43.1512    7.0527 C.ar    1  UNL1       -0.0003
     16 C          15.9539   42.2159    8.0137 C.ar    1  UNL1       -0.0000
     17 C          17.2391   42.2724    8.5616 C.ar    1  UNL1       -0.0000
     18 C          18.1319   43.2660    8.1497 C.ar    1  UNL1       -0.0000
     19 C          17.7402   44.2034    7.1900 C.ar    1  UNL1       -0.0000
     20 C          16.4552   44.1471    6.6419 C.ar    1  UNL1       -0.0000
     21 O          10.0478   44.5345   10.0149 O.2     1  UNL1       -0.2746
     22 C           8.9030   44.0672    9.7744 C.2     1  UNL1        0.2310
     23 N           8.6272   42.6701    9.9222 N.am    1  UNL1       -0.2694
     24 H           7.7109   42.3685    9.7257 H       1  UNL1        0.1562
     25 C           7.8087   44.9852    9.3617 C.3     1  UNL1        0.1326
     26 C           6.8867   44.2788    8.3827 C.3     1  UNL1        0.2150
     27 O           5.5549   44.2597    8.8855 O.3     1  UNL1       -0.4749
     28 C           4.9174   43.0943    9.3263 C.ar    1  UNL1        0.1386
     29 C           5.6304   42.0500    9.9393 C.ar    1  UNL1        0.0369
     30 C           4.9635   40.9001   10.3716 C.ar    1  UNL1        0.0031
     31 C           3.5816   40.7866   10.1959 C.ar    1  UNL1        0.0002
     32 C           2.8669   41.8230    9.5887 C.ar    1  UNL1        0.0031
     33 C           3.5340   42.9734    9.1562 C.ar    1  UNL1        0.0369
@<TRIPOS>BOND
     1    22    23   am
     2    25    22    1
     3    25    26    1
     4    26    27    1
     5    28    27    1
     6    29    30   ar
     7    31    32   ar
     8    33    28   ar
     9     2     3   ar
    10     6     5    1
    11     6     7    1
    12     7     8    1
    13     8    11    1
    14    12    11    1
    15    12    13    1
    16    14    15    1
    17    16    17   ar
    18    18    19   ar
    19    20    15   ar
    20     9    11    1
    21     9    10    1
    22    10     6    1
    23    23     1    1
    24     5     4   ar
    25     5     1   ar
    26    22    21    2
    27    28    29   ar
    28    30    31   ar
    29    32    33   ar
    30     1     2   ar
    31     3     4   ar
    32    13    14    2
    33    15    16   ar
    34    17    18   ar
    35    19    20   ar
    36    23    24    1
@<TRIPOS>MOLECULE
MolPort-005-116-032 14954796 CSSS00160028336 PubChem-26318516 ZINC000014954796
 33 36 0 0 0
SMALL
GASTEIGER

@<TRIPOS>ATOM
      1 C          11.4920   41.4395    8.7785 C.ar    1  UNL1        0.1325
      2 C          12.0079   42.1793    7.7310 C.ar    1  UNL1        0.0565
      3 C          13.2035   41.5318    7.4386 C.ar    1  UNL1        0.1230
      4 N          13.3675   40.4810    8.2698 N.ar    1  UNL1       -0.1666
      5 N          12.3214   40.4295    9.0748 N.ar    1  UNL1       -0.2394
      6 C          12.1361   39.4550   10.1475 C.3     1  UNL1        0.1093
      7 C          11.9125   38.0417    9.5854 C.3     1  UNL1        0.0418
      8 C          13.1714   37.1734    9.6457 C.3     1  UNL1        0.0744
      9 C          14.5499   38.7691   10.7293 C.3     1  UNL1        0.0744
     10 C          13.2839   39.5304   11.1645 C.3     1  UNL1        0.0418
     11 N          14.3584   38.0056    9.4933 N.3     1  UNL1       -0.2688
     12 C          15.4956   37.1098    9.3551 C.3     1  UNL1        0.0989
     13 C          15.0636   35.8204    8.7407 C.2     1  UNL1       -0.0088
     14 C          15.9471   34.8580    8.4914 C.2     1  UNL1       -0.0032
     15 C          15.5720   33.5687    7.8955 C.ar    1  UNL1       -0.0003
     16 C          14.7113   32.7240    8.6050 C.ar    1  UNL1       -0.0000
     17 C          14.3309   31.4908    8.0667 C.ar    1  UNL1       -0.0000
     18 C          14.8103   31.0967    6.8142 C.ar    1  UNL1       -0.0000
     19 C          15.6701   31.9352    6.0994 C.ar    1  UNL1       -0.0000
     20 C          16.0505   33.1684    6.6373 C.ar    1  UNL1       -0.0000
     21 O          10.8193   43.7662   10.4059 O.2     1  UNL1       -0.2746
     22 C           9.9711   42.8462   10.2611 C.2     1  UNL1        0.2310
     23 N          10.2635   41.6861    9.4747 N.am    1  UNL1       -0.2694
     24 H           9.5613   40.9995    9.4062 H       1  UNL1        0.1562
     25 C           8.6549   42.9489   10.9449 C.3     1  UNL1        0.1326
     26 C           8.3095   41.6214   11.5975 C.3     1  UNL1        0.2150
     27 O           6.9381   41.6014   11.9790 O.3     1  UNL1       -0.4749
     28 C           5.8854   41.5605   11.0576 C.ar    1  UNL1        0.1386
     29 C           6.0991   41.2365    9.7070 C.ar    1  UNL1        0.0369
     30 C           5.0257   41.2010    8.8124 C.ar    1  UNL1        0.0031
     31 C           3.7332   41.4872    9.2607 C.ar    1  UNL1        0.0002
     32 C           3.5143   41.8080   10.6033 C.ar    1  UNL1        0.0031
     33 C           4.5881   41.8436   11.4984 C.ar    1  UNL1        0.0369
@<TRIPOS>BOND
     1    22    23   am
     2    25    22    1
     3    25    26    1
     4    26    27    1
     5    28    27    1
     6    29    30   ar
     7    31    32   ar
     8    33    28   ar
     9     2     3   ar
    10     6     5    1
    11     6     7    1
    12     7     8    1
    13     8    11    1
    14    12    11    1
    15    12    13    1
    16    14    15    1
    17    16    17   ar
    18    18    19   ar
    19    20    15   ar
    20     9    11    1
    21     9    10    1
    22    10     6    1
    23    23     1    1
    24     5     4   ar
    25     5     1   ar
    26    22    21    2
    27    28    29   ar
    28    30    31   ar
    29    32    33   ar
    30     1     2   ar
    31     3     4   ar
    32    13    14    2
    33    15    16   ar
    34    17    18   ar
    35    19    20   ar
    36    23    24    1
@<TRIPOS>MOLECULE
MolPort-005-116-032 14954796 CSSS00160028336 PubChem-26318516 ZINC000014954796
 33 36 0 0 0
SMALL
GASTEIGER

@<TRIPOS>ATOM
      1 C           7.8773   41.8419    7.6751 C.ar    1  UNL1        0.1325
      2 C           7.4707   43.1626    7.6409 C.ar    1  UNL1        0.0565
      3 C           6.9180   43.2958    6.3717 C.ar    1  UNL1        0.1230
      4 N           7.0021   42.1208    5.7126 N.ar    1  UNL1       -0.1666
      5 N           7.5799   41.2435    6.5136 N.ar    1  UNL1       -0.2394
      6 C           7.8883   39.8602    6.1585 C.3     1  UNL1        0.1093
      7 C           8.8774   39.7925    4.9836 C.3     1  UNL1        0.0418
      8 C          10.3126   39.5074    5.4323 C.3     1  UNL1        0.0744
      9 C           9.8338   39.2761    7.7427 C.3     1  UNL1        0.0744
     10 C           8.3498   39.0655    7.3885 C.3     1  UNL1        0.0418
     11 N          10.5467   40.0847    6.7501 N.3     1  UNL1       -0.2688
     12 C          11.9687   39.9589    7.0272 C.3     1  UNL1        0.0989
     13 C          12.6847   41.2032    6.6200 C.2     1  UNL1       -0.0088
     14 C          13.8266   41.5516    7.2059 C.2     1  UNL1       -0.0032
     15 C          14.5736   42.7613    6.8364 C.ar    1  UNL1       -0.0003
     16 C          15.8558   42.9484    7.3643 C.ar    1  UNL1       -0.0000
     17 C          16.5966   44.0868    7.0317 C.ar    1  UNL1       -0.0000
     18 C          16.0572   45.0443    6.1678 C.ar    1  UNL1       -0.0000
     19 C          14.7773   44.8642    5.6362 C.ar    1  UNL1       -0.0000
     20 C          14.0365   43.7260    5.9686 C.ar    1  UNL1       -0.0000
     21 O           9.6573   43.0282    9.6597 O.2     1  UNL1       -0.2746
     22 C           9.3932   41.7981    9.7221 C.2     1  UNL1        0.2310
     23 N           8.5284   41.1767    8.7652 N.am    1  UNL1       -0.2694
     24 H           8.3672   40.2105    8.8643 H       1  UNL1        0.1562
     25 C          10.0155   40.9683   10.7873 C.3     1  UNL1        0.1326
     26 C          11.5287   41.0668   10.6978 C.3     1  UNL1        0.2150
     27 O          12.1062   39.7661   10.6593 O.3     1  UNL1       -0.4749
     28 C          13.4821   39.5336   10.7676 C.ar    1  UNL1        0.1386
     29 C          14.3910   40.0268    9.8161 C.ar    1  UNL1        0.0369
     30 C          15.7598   39.7799    9.9548 C.ar    1  UNL1        0.0031
     31 C          16.2292   39.0410   11.0443 C.ar    1  UNL1        0.0002
     32 C          15.3302   38.5498   11.9951 C.ar    1  UNL1        0.0031
     33 C          13.9607   38.7966   11.8563 C.ar    1  UNL1        0.0369
@<TRIPOS>BOND
     1    22    23   am
     2    25    22    1
     3    25    26    1
     4    26    27    1
     5    28    27    1
     6    29    30   ar
     7    31    32   ar
     8    33    28   ar
     9     2     3   ar
    10     6     5    1
    11     6     7    1
    12     7     8    1
    13     8    11    1
    14    12    11    1
    15    12    13    1
    16    14    15    1
    17    16    17   ar
    18    18    19   ar
    19    20    15   ar
    20     9    11    1
    21     9    10    1
    22    10     6    1
    23    23     1    1
    24     5     4   ar
    25     5     1   ar
    26    22    21    2
    27    28    29   ar
    28    30    31   ar
    29    32    33   ar
    30     1     2   ar
    31     3     4   ar
    32    13    14    2
    33    15    16   ar
    34    17    18   ar
    35    19    20   ar
    36    23    24    1
@<TRIPOS>MOLECULE
MolPort-005-116-032 14954796 CSSS00160028336 PubChem-26318516 ZINC000014954796
 33 36 0 0 0
SMALL
GASTEIGER

@<TRIPOS>ATOM
      1 C           5.5652   43.1973    8.7357 C.ar    1  UNL1        0.1325
      2 C           5.3621   44.4586    8.2080 C.ar    1  UNL1        0.0565
      3 C           6.0272   44.4074    6.9877 C.ar    1  UNL1        0.1230
      4 N           6.5821   43.1881    6.8223 N.ar    1  UNL1       -0.1666
      5 N           6.2912   42.4592    7.8850 N.ar    1  UNL1       -0.2394
      6 C           6.7406   41.0871    8.1090 C.3     1  UNL1        0.1093
      7 C           6.6156   40.2428    6.8304 C.3     1  UNL1        0.0418
      8 C           7.9506   40.0673    6.1027 C.3     1  UNL1        0.0744
      9 C           9.2772   41.2325    7.6848 C.3     1  UNL1        0.0744
     10 C           8.1492   41.0616    8.7194 C.3     1  UNL1        0.0418
     11 N           8.7864   41.2444    6.3042 N.3     1  UNL1       -0.2688
     12 C           9.9410   41.1053    5.4311 C.3     1  UNL1        0.0989
     13 C          11.1769   40.8974    6.2410 C.2     1  UNL1       -0.0088
     14 C          12.0914   41.8577    6.3421 C.2     1  UNL1       -0.0032
     15 C          13.3203   41.7059    7.1326 C.ar    1  UNL1       -0.0003
     16 C          14.4178   42.5209    6.8340 C.ar    1  UNL1       -0.0000
     17 C          15.6024   42.4056    7.5679 C.ar    1  UNL1       -0.0000
     18 C          15.6945   41.4734    8.6054 C.ar    1  UNL1       -0.0000
     19 C          14.6023   40.6562    8.9098 C.ar    1  UNL1       -0.0000
     20 C          13.4176   40.7714    8.1762 C.ar    1  UNL1       -0.0000
     21 O           2.8374   42.4270    9.4284 O.2     1  UNL1       -0.2746
     22 C           3.7441   42.3422   10.2986 C.2     1  UNL1        0.2310
     23 N           5.0941   42.7146   10.0004 N.am    1  UNL1       -0.2694
     24 H           5.7548   42.6320   10.7256 H       1  UNL1        0.1562
     25 C           3.4029   41.8794   11.6697 C.3     1  UNL1        0.1326
     26 C           1.9031   41.9807   11.8882 C.3     1  UNL1        0.2150
     27 O           1.6132   42.9724   12.8676 O.3     1  UNL1       -0.4749
     28 C           0.5230   42.8926   13.7416 C.ar    1  UNL1        0.1386
     29 C          -0.1065   41.6690   14.0263 C.ar    1  UNL1        0.0369
     30 C          -1.1914   41.6226   14.9064 C.ar    1  UNL1        0.0031
     31 C          -1.6531   42.7964   15.5084 C.ar    1  UNL1        0.0002
     32 C          -1.0295   44.0161   15.2307 C.ar    1  UNL1        0.0031
     33 C           0.0558   44.0627   14.3501 C.ar    1  UNL1        0.0369
@<TRIPOS>BOND
     1    22    23   am
     2    25    22    1
     3    25    26    1
     4    26    27    1
     5    28    27    1
     6    29    30   ar
     7    31    32   ar
     8    33    28   ar
     9     2     3   ar
    10     6     5    1
    11     6     7    1
    12     7     8    1
    13     8    11    1
    14    12    11    1
    15    12    13    1
    16    14    15    1
    17    16    17   ar
    18    18    19   ar
    19    20    15   ar
    20     9    11    1
    21     9    10    1
    22    10     6    1
    23    23     1    1
    24     5     4   ar
    25     5     1   ar
    26    22    21    2
    27    28    29   ar
    28    30    31   ar
    29    32    33   ar
    30     1     2   ar
    31     3     4   ar
    32    13    14    2
    33    15    16   ar
    34    17    18   ar
    35    19    20   ar
    36    23    24    1
@<TRIPOS>MOLECULE
MolPort-005-116-032 14954796 CSSS00160028336 PubChem-26318516 ZINC000014954796
 33 36 0 0 0
SMALL
GASTEIGER

@<TRIPOS>ATOM
      1 C          11.7046   38.4931    9.7975 C.ar    1  UNL1        0.1325
      2 C          11.1033   37.2769    9.5325 C.ar    1  UNL1        0.0565
      3 C          11.8685   36.3743   10.2631 C.ar    1  UNL1        0.1230
      4 N          12.8538   37.0317   10.9104 N.ar    1  UNL1       -0.1666
      5 N          12.7424   38.3171   10.6266 N.ar    1  UNL1       -0.2394
      6 C          13.6451   39.3622   11.1037 C.3     1  UNL1        0.1093
      7 C          14.5985   38.8262   12.1839 C.3     1  UNL1        0.0418
      8 C          15.9954   38.5159   11.6410 C.3     1  UNL1        0.0744
      9 C          15.5949   39.2538    9.4239 C.3     1  UNL1        0.0744
     10 C          14.3717   40.0391    9.9327 C.3     1  UNL1        0.0418
     11 N          15.9056   38.0851   10.2514 N.3     1  UNL1       -0.2688
     12 C          17.2254   37.6150    9.8618 C.3     1  UNL1        0.0989
     13 C          17.1176   36.3049    9.1556 C.2     1  UNL1       -0.0088
     14 C          15.9765   35.9359    8.5806 C.2     1  UNL1       -0.0032
     15 C          15.8210   34.6611    7.8672 C.ar    1  UNL1       -0.0003
     16 C          15.3193   33.5564    8.5641 C.ar    1  UNL1       -0.0000
     17 C          15.1553   32.3284    7.9158 C.ar    1  UNL1       -0.0000
     18 C          15.4927   32.1999    6.5654 C.ar    1  UNL1       -0.0000
     19 C          15.9941   33.2990    5.8626 C.ar    1  UNL1       -0.0000
     20 C          16.1580   34.5271    6.5105 C.ar    1  UNL1       -0.0000
     21 O          11.7115   39.3440    7.0064 O.2     1  UNL1       -0.2746
     22 C          11.3271   40.1474    7.8972 C.2     1  UNL1        0.2310
     23 N          11.3129   39.7705    9.2784 N.am    1  UNL1       -0.2694
     24 H          11.0084   40.4460    9.9266 H       1  UNL1        0.1562
     25 C          10.9119   41.5226    7.5140 C.3     1  UNL1        0.1326
     26 C          11.7895   42.0279    6.3817 C.3     1  UNL1        0.2150
     27 O          13.1574   41.7403    6.6517 O.3     1  UNL1       -0.4749
     28 C          14.1705   42.7043    6.5936 C.ar    1  UNL1        0.1386
     29 C          15.3620   42.5675    7.3258 C.ar    1  UNL1        0.0369
     30 C          16.3561   43.5467    7.2434 C.ar    1  UNL1        0.0031
     31 C          16.1674   44.6667    6.4289 C.ar    1  UNL1        0.0002
     32 C          14.9851   44.8070    5.6967 C.ar    1  UNL1        0.0031
     33 C          13.9905   43.8275    5.7791 C.ar    1  UNL1        0.0369
@<TRIPOS>BOND
     1    22    23   am
     2    25    22    1
     3    25    26    1
     4    26    27    1
     5    28    27    1
     6    29    30   ar
     7    31    32   ar
     8    33    28   ar
     9     2     3   ar
    10     6     5    1
    11     6     7    1
    12     7     8    1
    13     8    11    1
    14    12    11    1
    15    12    13    1
    16    14    15    1
    17    16    17   ar
    18    18    19   ar
    19    20    15   ar
    20     9    11    1
    21     9    10    1
    22    10     6    1
    23    23     1    1
    24     5     4   ar
    25     5     1   ar
    26    22    21    2
    27    28    29   ar
    28    30    31   ar
    29    32    33   ar
    30     1     2   ar
    31     3     4   ar
    32    13    14    2
    33    15    16   ar
    34    17    18   ar
    35    19    20   ar
    36    23    24    1
@<TRIPOS>MOLECULE
MolPort-005-116-032 14954796 CSSS00160028336 PubChem-26318516 ZINC000014954796
 33 36 0 0 0
SMALL
GASTEIGER

@<TRIPOS>ATOM
      1 C          14.5497   41.7019    7.6448 C.ar    1  UNL1        0.1325
      2 C          14.9471   42.7637    6.8541 C.ar    1  UNL1        0.0565
      3 C          13.7670   43.1637    6.2365 C.ar    1  UNL1        0.1230
      4 N          12.7492   42.3776    6.6465 N.ar    1  UNL1       -0.1666
      5 N          13.2327   41.4979    7.5053 N.ar    1  UNL1       -0.2394
      6 C          12.4556   40.4426    8.1513 C.3     1  UNL1        0.1093
      7 C          12.5836   40.5122    9.6817 C.3     1  UNL1        0.0418
      8 C          11.3730   41.1697   10.3486 C.3     1  UNL1        0.0744
      9 C          10.1150   41.4964    8.3659 C.3     1  UNL1        0.0744
     10 C          11.0005   40.4517    7.6616 C.3     1  UNL1        0.0418
     11 N          10.8040   42.1790    9.4644 N.3     1  UNL1       -0.2688
     12 C           9.7977   42.8999   10.2275 C.3     1  UNL1        0.0989
     13 C           8.5365   42.1054   10.2962 C.2     1  UNL1       -0.0088
     14 C           7.3578   42.6839   10.0842 C.2     1  UNL1       -0.0032
     15 C           6.0889   41.9451   10.1326 C.ar    1  UNL1       -0.0003
     16 C           5.7390   41.2848   11.3156 C.ar    1  UNL1       -0.0000
     17 C           4.5374   40.5746   11.3982 C.ar    1  UNL1       -0.0000
     18 C           3.6789   40.5220   10.2962 C.ar    1  UNL1       -0.0000
     19 C           4.0215   41.1793    9.1114 C.ar    1  UNL1       -0.0000
     20 C           5.2229   41.8897    9.0285 C.ar    1  UNL1       -0.0000
     21 O          17.1652   42.4239    8.7182 O.2     1  UNL1       -0.2746
     22 C          16.6672   41.3027    9.0039 C.2     1  UNL1        0.2310
     23 N          15.3887   40.9084    8.4940 N.am    1  UNL1       -0.2694
     24 H          15.0578   40.0168    8.7483 H       1  UNL1        0.1562
     25 C          17.4330   40.3570    9.8582 C.3     1  UNL1        0.1326
     26 C          16.4866   39.3458   10.4821 C.3     1  UNL1        0.2150
     27 O          16.1257   38.3535    9.5273 O.3     1  UNL1       -0.4749
     28 C          15.1523   37.3765    9.7660 C.ar    1  UNL1        0.1386
     29 C          15.0842   36.2002    9.0004 C.ar    1  UNL1        0.0369
     30 C          14.1017   35.2422    9.2662 C.ar    1  UNL1        0.0031
     31 C          13.1829   35.4520   10.2982 C.ar    1  UNL1        0.0002
     32 C          13.2470   36.6192   11.0645 C.ar    1  UNL1        0.0031
     33 C          14.2298   37.5777   10.7985 C.ar    1  UNL1        0.0369
@<TRIPOS>BOND
     1    22    23   am
     2    25    22    1
     3    25    26    1
     4    26    27    1
     5    28    27    1
     6    29    30   ar
     7    31    32   ar
     8    33    28   ar
     9     2     3   ar
    10     6     5    1
    11     6     7    1
    12     7     8    1
    13     8    11    1
    14    12    11    1
    15    12    13    1
    16    14    15    1
    17    16    17   ar
    18    18    19   ar
    19    20    15   ar
    20     9    11    1
    21     9    10    1
    22    10     6    1
    23    23     1    1
    24     5     4   ar
    25     5     1   ar
    26    22    21    2
    27    28    29   ar
    28    30    31   ar
    29    32    33   ar
    30     1     2   ar
    31     3     4   ar
    32    13    14    2
    33    15    16   ar
    34    17    18   ar
    35    19    20   ar
    36    23    24    1
@<TRIPOS>MOLECULE
MolPort-005-116-032 14954796 CSSS00160028336 PubChem-26318516 ZINC000014954796
 33 36 0 0 0
SMALL
GASTEIGER

@<TRIPOS>ATOM
      1 C           8.4484   41.0877    6.7877 C.ar    1  UNL1        0.1325
      2 C           8.2889   39.9609    6.0031 C.ar    1  UNL1        0.0565
      3 C           6.9720   39.5847    6.2450 C.ar    1  UNL1        0.1230
      4 N           6.4061   40.4439    7.1188 N.ar    1  UNL1       -0.1666
      5 N           7.3075   41.3556    7.4374 N.ar    1  UNL1       -0.2394
      6 C           7.0982   42.4448    8.3884 C.3     1  UNL1        0.1093
      7 C           6.4973   41.9282    9.7057 C.3     1  UNL1        0.0418
      8 C           7.5404   41.7814   10.8160 C.3     1  UNL1        0.0744
      9 C           9.3773   42.6226    9.5755 C.3     1  UNL1        0.0744
     10 C           8.3848   43.2593    8.5849 C.3     1  UNL1        0.0418
     11 N           8.8345   41.4355   10.2414 N.3     1  UNL1       -0.2688
     12 C           9.7225   41.1129   11.3469 C.3     1  UNL1        0.0989
     13 C          11.0979   40.8359   10.8387 C.2     1  UNL1       -0.0088
     14 C          11.9251   40.0451   11.5163 C.2     1  UNL1       -0.0032
     15 C          13.2851   39.7350   11.0554 C.ar    1  UNL1       -0.0003
     16 C          14.1026   38.9341   11.8604 C.ar    1  UNL1       -0.0000
     17 C          15.4014   38.6163   11.4516 C.ar    1  UNL1       -0.0000
     18 C          15.8889   39.0987   10.2335 C.ar    1  UNL1       -0.0000
     19 C          15.0781   39.8988    9.4238 C.ar    1  UNL1       -0.0000
     20 C          13.7792   40.2167    9.8323 C.ar    1  UNL1       -0.0000
     21 O          11.1654   40.1210    7.2318 O.2     1  UNL1       -0.2746
     22 C          10.9577   41.3595    7.1334 C.2     1  UNL1        0.2310
     23 N           9.6390   41.8747    6.9200 N.am    1  UNL1       -0.2694
     24 H           9.5418   42.8525    6.8590 H       1  UNL1        0.1562
     25 C          12.0951   42.3067    7.2741 C.3     1  UNL1        0.1326
     26 C          12.9248   42.3065    6.0017 C.3     1  UNL1        0.2150
     27 O          13.7786   43.4452    5.9694 O.3     1  UNL1       -0.4749
     28 C          15.1263   43.4051    6.3452 C.ar    1  UNL1        0.1386
     29 C          15.5475   42.7459    7.5125 C.ar    1  UNL1        0.0369
     30 C          16.9017   42.7213    7.8583 C.ar    1  UNL1        0.0031
     31 C          17.8428   43.3529    7.0405 C.ar    1  UNL1        0.0002
     32 C          17.4299   44.0082    5.8771 C.ar    1  UNL1        0.0031
     33 C          16.0752   44.0330    5.5311 C.ar    1  UNL1        0.0369
@<TRIPOS>BOND
     1    22    23   am
     2    25    22    1
     3    25    26    1
     4    26    27    1
     5    28    27    1
     6    29    30   ar
     7    31    32   ar
     8    33    28   ar
     9     2     3   ar
    10     6     5    1
    11     6     7    1
    12     7     8    1
    13     8    11    1
    14    12    11    1
    15    12    13    1
    16    14    15    1
    17    16    17   ar
    18    18    19   ar
    19    20    15   ar
    20     9    11    1
    21     9    10    1
    22    10     6    1
    23    23     1    1
    24     5     4   ar
    25     5     1   ar
    26    22    21    2
    27    28    29   ar
    28    30    31   ar
    29    32    33   ar
    30     1     2   ar
    31     3     4   ar
    32    13    14    2
    33    15    16   ar
    34    17    18   ar
    35    19    20   ar
    36    23    24    1
@<TRIPOS>MOLECULE
MolPort-005-116-032 14954796 CSSS00160028336 PubChem-26318516 ZINC000014954796
 33 36 0 0 0
SMALL
GASTEIGER

@<TRIPOS>ATOM
      1 C          13.4467   40.6367    8.1591 C.ar    1  UNL1        0.1325
      2 C          14.7014   41.2000    8.0206 C.ar    1  UNL1        0.0565
      3 C          15.3349   40.8706    9.2140 C.ar    1  UNL1        0.1230
      4 N          14.4941   40.1599    9.9950 N.ar    1  UNL1       -0.1666
      5 N          13.3534   40.0180    9.3440 N.ar    1  UNL1       -0.2394
      6 C          12.1693   39.3392    9.8656 C.3     1  UNL1        0.1093
      7 C          11.7803   39.8804   11.2509 C.3     1  UNL1        0.0418
      8 C          10.6152   40.8713   11.1946 C.3     1  UNL1        0.0744
      9 C          10.2299   40.7050    8.8613 C.3     1  UNL1        0.0744
     10 C          11.0181   39.3819    8.8507 C.3     1  UNL1        0.0418
     11 N          10.6477   41.6078    9.9372 N.3     1  UNL1       -0.2688
     12 C           9.6507   42.6622   10.0317 C.3     1  UNL1        0.0989
     13 C           8.2847   42.0712   10.1381 C.2     1  UNL1       -0.0088
     14 C           7.2034   42.8256    9.9636 C.2     1  UNL1       -0.0032
     15 C           5.8379   42.2910   10.0501 C.ar    1  UNL1       -0.0003
     16 C           4.8013   42.9863    9.4178 C.ar    1  UNL1       -0.0000
     17 C           3.4899   42.5047    9.4770 C.ar    1  UNL1       -0.0000
     18 C           3.2092   41.3234   10.1697 C.ar    1  UNL1       -0.0000
     19 C           4.2395   40.6232   10.8034 C.ar    1  UNL1       -0.0000
     20 C           5.5509   41.1044   10.7443 C.ar    1  UNL1       -0.0000
     21 O          13.0154   42.6551    6.0965 O.2     1  UNL1       -0.2746
     22 C          12.2036   41.6981    6.2050 C.2     1  UNL1        0.2310
     23 N          12.3768   40.6898    7.2066 N.am    1  UNL1       -0.2694
     24 H          11.7041   39.9720    7.2443 H       1  UNL1        0.1562
     25 C          11.0258   41.6302    5.3002 C.3     1  UNL1        0.1326
     26 C          10.9480   40.2549    4.6598 C.3     1  UNL1        0.2150
     27 O           9.9149   39.4860    5.2667 O.3     1  UNL1       -0.4749
     28 C           8.7329   40.0460    5.7650 C.ar    1  UNL1        0.1386
     29 C           8.5869   41.4337    5.9317 C.ar    1  UNL1        0.0369
     30 C           7.3921   41.9619    6.4289 C.ar    1  UNL1        0.0031
     31 C           6.3362   41.1086    6.7610 C.ar    1  UNL1        0.0002
     32 C           6.4749   39.7277    6.5954 C.ar    1  UNL1        0.0031
     33 C           7.6702   39.1992    6.0980 C.ar    1  UNL1        0.0369
@<TRIPOS>BOND
     1    22    23   am
     2    25    22    1
     3    25    26    1
     4    26    27    1
     5    28    27    1
     6    29    30   ar
     7    31    32   ar
     8    33    28   ar
     9     2     3   ar
    10     6     5    1
    11     6     7    1
    12     7     8    1
    13     8    11    1
    14    12    11    1
    15    12    13    1
    16    14    15    1
    17    16    17   ar
    18    18    19   ar
    19    20    15   ar
    20     9    11    1
    21     9    10    1
    22    10     6    1
    23    23     1    1
    24     5     4   ar
    25     5     1   ar
    26    22    21    2
    27    28    29   ar
    28    30    31   ar
    29    32    33   ar
    30     1     2   ar
    31     3     4   ar
    32    13    14    2
    33    15    16   ar
    34    17    18   ar
    35    19    20   ar
    36    23    24    1
@<TRIPOS>MOLECULE
MolPort-005-116-032 14954796 CSSS00160028336 PubChem-26318516 ZINC000014954796
 33 36 0 0 0
SMALL
GASTEIGER

@<TRIPOS>ATOM
      1 C          10.0091   40.8285    7.1899 C.ar    1  UNL1        0.1325
      2 C          10.5855   41.4316    6.0876 C.ar    1  UNL1        0.0565
      3 C          11.8760   40.9133    6.0759 C.ar    1  UNL1        0.1230
      4 N          12.0344   40.0621    7.1115 N.ar    1  UNL1       -0.1666
      5 N          10.8947   40.0126    7.7778 N.ar    1  UNL1       -0.2394
      6 C          10.6661   39.2311    8.9909 C.3     1  UNL1        0.1093
      7 C          11.4538   37.9112    8.9614 C.3     1  UNL1        0.0418
      8 C          12.7349   37.9664    9.7970 C.3     1  UNL1        0.0744
      9 C          12.4258   40.1672   10.6225 C.3     1  UNL1        0.0744
     10 C          10.9353   40.0721   10.2469 C.3     1  UNL1        0.0418
     11 N          13.2790   39.3186    9.7863 N.3     1  UNL1       -0.2688
     12 C          14.5871   39.2598   10.4187 C.3     1  UNL1        0.0989
     13 C          15.4758   40.3220    9.8632 C.2     1  UNL1       -0.0088
     14 C          15.1587   40.9504    8.7348 C.2     1  UNL1       -0.0032
     15 C          15.9950   42.0077    8.1509 C.ar    1  UNL1       -0.0003
     16 C          15.4525   42.8183    7.1477 C.ar    1  UNL1       -0.0000
     17 C          16.2189   43.8362    6.5718 C.ar    1  UNL1       -0.0000
     18 C          17.5332   44.0483    6.9978 C.ar    1  UNL1       -0.0000
     19 C          18.0818   43.2430    7.9996 C.ar    1  UNL1       -0.0000
     20 C          17.3157   42.2251    8.5758 C.ar    1  UNL1       -0.0000
     21 O           9.0227   43.0389    8.8194 O.2     1  UNL1       -0.2746
     22 C           8.2275   42.1284    8.4650 C.2     1  UNL1        0.2310
     23 N           8.6726   41.0246    7.6693 N.am    1  UNL1       -0.2694
     24 H           8.0040   40.3422    7.4313 H       1  UNL1        0.1562
     25 C           6.8090   42.1815    8.9072 C.3     1  UNL1        0.1326
     26 C           6.0281   41.0465    8.2673 C.3     1  UNL1        0.2150
     27 O           4.6315   41.2315    8.4726 O.3     1  UNL1       -0.4749
     28 C           4.0407   41.2715    9.7407 C.ar    1  UNL1        0.1386
     29 C           4.2681   40.2634   10.6929 C.ar    1  UNL1        0.0369
     30 C           3.6654   40.3344   11.9521 C.ar    1  UNL1        0.0031
     31 C           2.8338   41.4123   12.2684 C.ar    1  UNL1        0.0002
     32 C           2.6057   42.4190   11.3262 C.ar    1  UNL1        0.0031
     33 C           3.2085   42.3481   10.0664 C.ar    1  UNL1        0.0369
@<TRIPOS>BOND
     1    22    23   am
     2    25    22    1
     3    25    26    1
     4    26    27    1
     5    28    27    1
     6    29    30   ar
     7    31    32   ar
     8    33    28   ar
     9     2     3   ar
    10     6     5    1
    11     6     7    1
    12     7     8    1
    13     8    11    1
    14    12    11    1
    15    12    13    1
    16    14    15    1
    17    16    17   ar
    18    18    19   ar
    19    20    15   ar
    20     9    11    1
    21     9    10    1
    22    10     6    1
    23    23     1    1
    24     5     4   ar
    25     5     1   ar
    26    22    21    2
    27    28    29   ar
    28    30    31   ar
    29    32    33   ar
    30     1     2   ar
    31     3     4   ar
    32    13    14    2
    33    15    16   ar
    34    17    18   ar
    35    19    20   ar
    36    23    24    1
@<TRIPOS>MOLECULE
MolPort-005-116-032 14954796 CSSS00160028336 PubChem-26318516 ZINC000014954796
 33 36 0 0 0
SMALL
GASTEIGER

@<TRIPOS>ATOM
      1 C           8.4871   42.7389    8.3535 C.ar    1  UNL1        0.1325
      2 C           7.9080   43.4946    9.3556 C.ar    1  UNL1        0.0565
      3 C           6.6308   43.7500    8.8681 C.ar    1  UNL1        0.1230
      4 N           6.4828   43.1759    7.6555 N.ar    1  UNL1       -0.1666
      5 N           7.6120   42.5598    7.3546 N.ar    1  UNL1       -0.2394
      6 C           7.8708   41.8465    6.1060 C.3     1  UNL1        0.1093
      7 C           9.3729   41.5801    5.9162 C.3     1  UNL1        0.0418
      8 C           9.7709   40.1464    6.2750 C.3     1  UNL1        0.0744
      9 C           7.5863   39.3769    6.7807 C.3     1  UNL1        0.0744
     10 C           7.0111   40.5783    6.0077 C.3     1  UNL1        0.0418
     11 N           8.9138   39.6433    7.3411 N.3     1  UNL1       -0.2688
     12 C           9.4675   38.3695    7.7718 C.3     1  UNL1        0.0989
     13 C          10.6819   38.5929    8.6096 C.2     1  UNL1       -0.0088
     14 C          11.1416   37.6333    9.4076 C.2     1  UNL1       -0.0032
     15 C          12.3365   37.8002   10.2457 C.ar    1  UNL1       -0.0003
     16 C          13.0413   36.6603   10.6480 C.ar    1  UNL1       -0.0000
     17 C          14.1847   36.7820   11.4435 C.ar    1  UNL1       -0.0000
     18 C          14.6292   38.0465   11.8405 C.ar    1  UNL1       -0.0000
     19 C          13.9307   39.1897   11.4423 C.ar    1  UNL1       -0.0000
     20 C          12.7874   39.0683   10.6467 C.ar    1  UNL1       -0.0000
     21 O          10.7549   43.6397    9.9534 O.2     1  UNL1       -0.2746
     22 C          10.9067   42.6825    9.1487 C.2     1  UNL1        0.2310
     23 N           9.8206   42.2134    8.3423 N.am    1  UNL1       -0.2694
     24 H          10.0055   41.4666    7.7280 H       1  UNL1        0.1562
     25 C          12.2443   42.0489    9.0078 C.3     1  UNL1        0.1326
     26 C          12.5370   41.7866    7.5405 C.3     1  UNL1        0.2150
     27 O          13.9289   41.5577    7.3485 O.3     1  UNL1       -0.4749
     28 C          14.8398   42.5761    7.0451 C.ar    1  UNL1        0.1386
     29 C          16.1126   42.6284    7.6381 C.ar    1  UNL1        0.0369
     30 C          17.0006   43.6572    7.3112 C.ar    1  UNL1        0.0031
     31 C          16.6240   44.6383    6.3899 C.ar    1  UNL1        0.0002
     32 C          15.3601   44.5903    5.7952 C.ar    1  UNL1        0.0031
     33 C          14.4715   43.5611    6.1222 C.ar    1  UNL1        0.0369
@<TRIPOS>BOND
     1    22    23   am
     2    25    22    1
     3    25    26    1
     4    26    27    1
     5    28    27    1
     6    29    30   ar
     7    31    32   ar
     8    33    28   ar
     9     2     3   ar
    10     6     5    1
    11     6     7    1
    12     7     8    1
    13     8    11    1
    14    12    11    1
    15    12    13    1
    16    14    15    1
    17    16    17   ar
    18    18    19   ar
    19    20    15   ar
    20     9    11    1
    21     9    10    1
    22    10     6    1
    23    23     1    1
    24     5     4   ar
    25     5     1   ar
    26    22    21    2
    27    28    29   ar
    28    30    31   ar
    29    32    33   ar
    30     1     2   ar
    31     3     4   ar
    32    13    14    2
    33    15    16   ar
    34    17    18   ar
    35    19    20   ar
    36    23    24    1
