@<TRIPOS>MOLECULE
MolPort-009-685-328 6790940 CSSS03437122812 LN01384662 MCULE-7478355009 PubChem-4126701 ZINC000006790940
 24 26 0 0 0
SMALL
GASTEIGER

@<TRIPOS>ATOM
      1 C          13.3470   42.5090    6.2936 C.ar    1  UNL1        0.1657
      2 C          15.4670   43.4787    6.9900 C.ar    1  UNL1        0.0527
      3 C          15.1776   42.2428    7.5497 C.ar    1  UNL1        0.1230
      4 C          16.0712   41.6430    8.4425 C.ar    1  UNL1        0.1566
      5 C          17.2657   42.3281    8.7508 C.ar    1  UNL1        0.0385
      6 C          17.5447   43.5816    8.1746 C.ar    1  UNL1        0.0037
      7 C          16.6381   44.1716    7.2813 C.ar    1  UNL1        0.0083
      8 N          13.9953   41.6974    7.1630 N.ar    1  UNL1       -0.2209
      9 S          14.2159   43.9316    5.9692 S.2     1  UNL1       -0.0513
     10 C          11.3503   40.9443    5.9685 C.2     1  UNL1        0.2721
     11 N          12.0773   42.1553    5.7318 N.am    1  UNL1       -0.2611
     12 O          11.8140   40.0361    6.7068 O.2     1  UNL1       -0.2707
     13 H          11.6638   42.8092    5.1230 H       1  UNL1        0.1569
     14 C          10.0141   40.7583    5.3353 C.3     1  UNL1        0.2897
     15 O           9.2109   41.9194    5.5237 O.3     1  UNL1       -0.4656
     16 C           8.2074   42.0112    6.4946 C.ar    1  UNL1        0.1393
     17 C           8.0768   41.0536    7.5143 C.ar    1  UNL1        0.0369
     18 C           7.0622   41.1738    8.4683 C.ar    1  UNL1        0.0031
     19 C           6.1717   42.2493    8.4091 C.ar    1  UNL1        0.0002
     20 C           6.2957   43.2039    7.3958 C.ar    1  UNL1        0.0031
     21 C           7.3107   43.0839    6.4415 C.ar    1  UNL1        0.0369
     22 O          15.7695   40.3940    8.9988 O.3     1  UNL1       -0.4739
     23 C          14.6865   40.1829    9.8977 C.3     1  UNL1        0.2056
     24 C          15.0777   39.1725   10.9598 C.3     1  UNL1        0.0512
@<TRIPOS>BOND
     1     1    11    1
     2     1     9   ar
     3    14    10    1
     4    14    15    1
     5    16    15    1
     6    17    18   ar
     7    19    20   ar
     8    21    16   ar
     9     2     9   ar
    10     3     4   ar
    11     3     8   ar
    12     4    22    1
    13     5     6   ar
    14     7     2   ar
    15    23    22    1
    16    23    24    1
    17    11    10   am
    18     1     8   ar
    19    10    12    2
    20    16    17   ar
    21    18    19   ar
    22    20    21   ar
    23     2     3   ar
    24     4     5   ar
    25     6     7   ar
    26    11    13    1
@<TRIPOS>MOLECULE
MolPort-009-685-328 6790940 CSSS03437122812 LN01384662 MCULE-7478355009 PubChem-4126701 ZINC000006790940
 24 26 0 0 0
SMALL
GASTEIGER

@<TRIPOS>ATOM
      1 C          13.5215   42.0958    7.1779 C.ar    1  UNL1        0.1657
      2 C          15.5695   43.3012    6.6556 C.ar    1  UNL1        0.0527
      3 C          15.6586   42.4393    7.7388 C.ar    1  UNL1        0.1230
      4 C          16.8591   42.3103    8.4443 C.ar    1  UNL1        0.1566
      5 C          17.9661   43.0763    8.0213 C.ar    1  UNL1        0.0385
      6 C          17.8594   43.9466    6.9201 C.ar    1  UNL1        0.0037
      7 C          16.6482   44.0663    6.2228 C.ar    1  UNL1        0.0083
      8 N          14.5178   41.7637    8.0335 N.ar    1  UNL1       -0.2209
      9 S          14.0179   43.2370    6.0224 S.2     1  UNL1       -0.0513
     10 C          11.2436   41.7689    8.2937 C.2     1  UNL1        0.2721
     11 N          12.2162   41.5129    7.2741 N.am    1  UNL1       -0.2611
     12 O          11.4893   42.5472    9.2522 O.2     1  UNL1       -0.2707
     13 H          11.9629   40.8733    6.5698 H       1  UNL1        0.1569
     14 C           9.9104   41.1076    8.2146 C.3     1  UNL1        0.2897
     15 O           9.1349   41.4168    9.3686 O.3     1  UNL1       -0.4656
     16 C           7.7362   41.3811    9.3877 C.ar    1  UNL1        0.1393
     17 C           6.9889   41.1048    8.2306 C.ar    1  UNL1        0.0369
     18 C           5.5923   41.0779    8.2832 C.ar    1  UNL1        0.0031
     19 C           4.9339   41.3279    9.4904 C.ar    1  UNL1        0.0002
     20 C           5.6722   41.6052   10.6443 C.ar    1  UNL1        0.0031
     21 C           7.0693   41.6319   10.5917 C.ar    1  UNL1        0.0369
     22 O          16.9378   41.4350    9.5343 O.3     1  UNL1       -0.4739
     23 C          17.5734   40.1633    9.4676 C.3     1  UNL1        0.2056
     24 C          17.3308   39.3895   10.7499 C.3     1  UNL1        0.0512
@<TRIPOS>BOND
     1     1    11    1
     2     1     9   ar
     3    14    10    1
     4    14    15    1
     5    16    15    1
     6    17    18   ar
     7    19    20   ar
     8    21    16   ar
     9     2     9   ar
    10     3     4   ar
    11     3     8   ar
    12     4    22    1
    13     5     6   ar
    14     7     2   ar
    15    23    22    1
    16    23    24    1
    17    11    10   am
    18     1     8   ar
    19    10    12    2
    20    16    17   ar
    21    18    19   ar
    22    20    21   ar
    23     2     3   ar
    24     4     5   ar
    25     6     7   ar
    26    11    13    1
@<TRIPOS>MOLECULE
MolPort-009-685-328 6790940 CSSS03437122812 LN01384662 MCULE-7478355009 PubChem-4126701 ZINC000006790940
 24 26 0 0 0
SMALL
GASTEIGER

@<TRIPOS>ATOM
      1 C          17.0315   41.7736    8.5972 C.ar    1  UNL1        0.1657
      2 C          16.3407   43.6336    7.1890 C.ar    1  UNL1        0.0527
      3 C          15.4176   42.6031    7.2906 C.ar    1  UNL1        0.1230
      4 C          14.1964   42.6770    6.6136 C.ar    1  UNL1        0.1566
      5 C          13.9355   43.8233    5.8331 C.ar    1  UNL1        0.0385
      6 C          14.8826   44.8604    5.7401 C.ar    1  UNL1        0.0037
      7 C          16.1041   44.7717    6.4242 C.ar    1  UNL1        0.0083
      8 N          15.7989   41.5629    8.0765 N.ar    1  UNL1       -0.2209
      9 S          17.6940   43.2579    8.1055 S.2     1  UNL1       -0.0513
     10 C          16.9931   39.8512   10.2836 C.2     1  UNL1        0.2721
     11 N          17.6572   40.8232    9.4679 N.am    1  UNL1       -0.2611
     12 O          15.7371   39.7757   10.3203 O.2     1  UNL1       -0.2707
     13 H          18.6407   40.8401    9.5097 H       1  UNL1        0.1569
     14 C          17.8049   38.9041   11.0991 C.3     1  UNL1        0.2897
     15 O          17.3209   37.5738   10.9409 O.3     1  UNL1       -0.4656
     16 C          17.3784   36.8732    9.7309 C.ar    1  UNL1        0.1393
     17 C          16.2148   36.4532    9.0650 C.ar    1  UNL1        0.0369
     18 C          16.3070   35.7538    7.8582 C.ar    1  UNL1        0.0031
     19 C          17.5606   35.4687    7.3102 C.ar    1  UNL1        0.0002
     20 C          18.7216   35.8824    7.9692 C.ar    1  UNL1        0.0031
     21 C          18.6295   36.5822    9.1763 C.ar    1  UNL1        0.0369
     22 O          13.2713   41.6319    6.7260 O.3     1  UNL1       -0.4739
     23 C          11.8658   41.8194    6.6037 C.3     1  UNL1        0.2056
     24 C          11.2933   40.8399    5.5964 C.3     1  UNL1        0.0512
@<TRIPOS>BOND
     1     1    11    1
     2     1     9   ar
     3    14    10    1
     4    14    15    1
     5    16    15    1
     6    17    18   ar
     7    19    20   ar
     8    21    16   ar
     9     2     9   ar
    10     3     4   ar
    11     3     8   ar
    12     4    22    1
    13     5     6   ar
    14     7     2   ar
    15    23    22    1
    16    23    24    1
    17    11    10   am
    18     1     8   ar
    19    10    12    2
    20    16    17   ar
    21    18    19   ar
    22    20    21   ar
    23     2     3   ar
    24     4     5   ar
    25     6     7   ar
    26    11    13    1
@<TRIPOS>MOLECULE
MolPort-009-685-328 6790940 CSSS03437122812 LN01384662 MCULE-7478355009 PubChem-4126701 ZINC000006790940
 24 26 0 0 0
SMALL
GASTEIGER

@<TRIPOS>ATOM
      1 C          13.1932   42.6090    6.9895 C.ar    1  UNL1        0.1657
      2 C          15.4583   43.4200    6.6274 C.ar    1  UNL1        0.0527
      3 C          15.3439   42.4051    7.5663 C.ar    1  UNL1        0.1230
      4 C          16.4771   41.9208    8.2272 C.ar    1  UNL1        0.1566
      5 C          17.7281   42.4910    7.9099 C.ar    1  UNL1        0.0385
      6 C          17.8276   43.5204    6.9549 C.ar    1  UNL1        0.0037
      7 C          16.6819   43.9968    6.3006 C.ar    1  UNL1        0.0083
      8 N          14.0811   41.9488    7.7710 N.ar    1  UNL1       -0.2209
      9 S          13.9400   43.7810    6.0136 S.2     1  UNL1       -0.0513
     10 C          11.1107   41.3667    6.1767 C.2     1  UNL1        0.2721
     11 N          11.7929   42.3068    7.0144 N.am    1  UNL1       -0.2611
     12 O          11.7213   40.7209    5.2851 O.2     1  UNL1       -0.2707
     13 H          11.2456   42.7936    7.6723 H       1  UNL1        0.1569
     14 C           9.6502   41.1414    6.3693 C.3     1  UNL1        0.2897
     15 O           9.4262   40.2436    7.4522 O.3     1  UNL1       -0.4656
     16 C           9.6630   40.5780    8.7903 C.ar    1  UNL1        0.1393
     17 C          10.7136   39.9987    9.5213 C.ar    1  UNL1        0.0369
     18 C          10.9223   40.3537   10.8571 C.ar    1  UNL1        0.0031
     19 C          10.0830   41.2873   11.4710 C.ar    1  UNL1        0.0002
     20 C           9.0350   41.8654   10.7492 C.ar    1  UNL1        0.0031
     21 C           8.8263   41.5106    9.4129 C.ar    1  UNL1        0.0369
     22 O          16.3495   40.8942    9.1708 O.3     1  UNL1       -0.4739
     23 C          17.4637   40.2783    9.8071 C.3     1  UNL1        0.2056
     24 C          16.9875   39.3146   10.8778 C.3     1  UNL1        0.0512
@<TRIPOS>BOND
     1     1    11    1
     2     1     9   ar
     3    14    10    1
     4    14    15    1
     5    16    15    1
     6    17    18   ar
     7    19    20   ar
     8    21    16   ar
     9     2     9   ar
    10     3     4   ar
    11     3     8   ar
    12     4    22    1
    13     5     6   ar
    14     7     2   ar
    15    23    22    1
    16    23    24    1
    17    11    10   am
    18     1     8   ar
    19    10    12    2
    20    16    17   ar
    21    18    19   ar
    22    20    21   ar
    23     2     3   ar
    24     4     5   ar
    25     6     7   ar
    26    11    13    1
@<TRIPOS>MOLECULE
MolPort-009-685-328 6790940 CSSS03437122812 LN01384662 MCULE-7478355009 PubChem-4126701 ZINC000006790940
 24 26 0 0 0
SMALL
GASTEIGER

@<TRIPOS>ATOM
      1 C          16.7563   41.6542    8.6742 C.ar    1  UNL1        0.1657
      2 C          16.3050   43.5892    7.2699 C.ar    1  UNL1        0.0527
      3 C          15.3232   42.6094    7.2481 C.ar    1  UNL1        0.1230
      4 C          14.1792   42.7707    6.4603 C.ar    1  UNL1        0.1566
      5 C          14.0565   43.9515    5.6975 C.ar    1  UNL1        0.0385
      6 C          15.0617   44.9362    5.7303 C.ar    1  UNL1        0.0037
      7 C          16.2044   44.7601    6.5246 C.ar    1  UNL1        0.0083
      8 N          15.5707   41.5277    8.0313 N.ar    1  UNL1       -0.2209
      9 S          17.5410   43.1126    8.2983 S.2     1  UNL1       -0.0513
     10 C          16.4517   39.8153   10.4253 C.2     1  UNL1        0.2721
     11 N          17.2432   40.6461    9.5682 N.am    1  UNL1       -0.2611
     12 O          15.2000   39.9371   10.4813 O.2     1  UNL1       -0.2707
     13 H          18.2180   40.5112    9.5962 H       1  UNL1        0.1569
     14 C          17.1218   38.7796   11.2616 C.3     1  UNL1        0.2897
     15 O          16.1559   37.8993   11.8279 O.3     1  UNL1       -0.4656
     16 C          15.2536   37.1523   11.0624 C.ar    1  UNL1        0.1393
     17 C          15.6362   36.5445    9.8549 C.ar    1  UNL1        0.0369
     18 C          14.7099   35.8059    9.1131 C.ar    1  UNL1        0.0031
     19 C          13.3965   35.6710    9.5714 C.ar    1  UNL1        0.0002
     20 C          13.0097   36.2751   10.7709 C.ar    1  UNL1        0.0031
     21 C          13.9364   37.0138   11.5132 C.ar    1  UNL1        0.0369
     22 O          13.1936   41.7762    6.4486 O.3     1  UNL1       -0.4739
     23 C          11.8029   42.0591    6.3413 C.3     1  UNL1        0.2056
     24 C          11.0979   40.9415    5.5957 C.3     1  UNL1        0.0512
@<TRIPOS>BOND
     1     1    11    1
     2     1     9   ar
     3    14    10    1
     4    14    15    1
     5    16    15    1
     6    17    18   ar
     7    19    20   ar
     8    21    16   ar
     9     2     9   ar
    10     3     4   ar
    11     3     8   ar
    12     4    22    1
    13     5     6   ar
    14     7     2   ar
    15    23    22    1
    16    23    24    1
    17    11    10   am
    18     1     8   ar
    19    10    12    2
    20    16    17   ar
    21    18    19   ar
    22    20    21   ar
    23     2     3   ar
    24     4     5   ar
    25     6     7   ar
    26    11    13    1
@<TRIPOS>MOLECULE
MolPort-009-685-328 6790940 CSSS03437122812 LN01384662 MCULE-7478355009 PubChem-4126701 ZINC000006790940
 24 26 0 0 0
SMALL
GASTEIGER

@<TRIPOS>ATOM
      1 C          13.5685   41.9414    7.3890 C.ar    1  UNL1        0.1657
      2 C          15.4181   43.2756    6.5414 C.ar    1  UNL1        0.0527
      3 C          15.7271   42.4726    7.6295 C.ar    1  UNL1        0.1230
      4 C          17.0203   42.4679    8.1616 C.ar    1  UNL1        0.1566
      5 C          17.9912   43.2967    7.5604 C.ar    1  UNL1        0.0385
      6 C          17.6617   44.1060    6.4568 C.ar    1  UNL1        0.0037
      7 C          16.3598   44.1010    5.9345 C.ar    1  UNL1        0.0083
      8 N          14.6976   41.7254    8.1055 N.ar    1  UNL1       -0.2209
      9 S          13.8043   43.0643    6.1371 S.2     1  UNL1       -0.0513
     10 C          11.2924   41.7434    8.5384 C.2     1  UNL1        0.2721
     11 N          12.3415   41.2651    7.6888 N.am    1  UNL1       -0.2611
     12 O          11.3897   42.8434    9.1428 O.2     1  UNL1       -0.2707
     13 H          12.2062   40.3847    7.2695 H       1  UNL1        0.1569
     14 C          10.0566   40.9270    8.7041 C.3     1  UNL1        0.2897
     15 O          10.1355   40.1447    9.8918 O.3     1  UNL1       -0.4656
     16 C          11.2692   39.4087   10.2542 C.ar    1  UNL1        0.1393
     17 C          11.4338   38.0681    9.8675 C.ar    1  UNL1        0.0369
     18 C          12.5779   37.3604   10.2473 C.ar    1  UNL1        0.0031
     19 C          13.5630   37.9861   11.0162 C.ar    1  UNL1        0.0002
     20 C          13.4036   39.3190   11.4054 C.ar    1  UNL1        0.0031
     21 C          12.2593   40.0271   11.0253 C.ar    1  UNL1        0.0369
     22 O          17.3210   41.6510    9.2583 O.3     1  UNL1       -0.4739
     23 C          16.6494   40.4245    9.5233 C.3     1  UNL1        0.2056
     24 C          17.5091   39.5371   10.4038 C.3     1  UNL1        0.0512
@<TRIPOS>BOND
     1     1    11    1
     2     1     9   ar
     3    14    10    1
     4    14    15    1
     5    16    15    1
     6    17    18   ar
     7    19    20   ar
     8    21    16   ar
     9     2     9   ar
    10     3     4   ar
    11     3     8   ar
    12     4    22    1
    13     5     6   ar
    14     7     2   ar
    15    23    22    1
    16    23    24    1
    17    11    10   am
    18     1     8   ar
    19    10    12    2
    20    16    17   ar
    21    18    19   ar
    22    20    21   ar
    23     2     3   ar
    24     4     5   ar
    25     6     7   ar
    26    11    13    1
@<TRIPOS>MOLECULE
MolPort-009-685-328 6790940 CSSS03437122812 LN01384662 MCULE-7478355009 PubChem-4126701 ZINC000006790940
 24 26 0 0 0
SMALL
GASTEIGER

@<TRIPOS>ATOM
      1 C          13.5999   42.4087    6.9345 C.ar    1  UNL1        0.1657
      2 C          15.7174   43.6070    6.9174 C.ar    1  UNL1        0.0527
      3 C          15.7168   42.4316    7.6543 C.ar    1  UNL1        0.1230
      4 C          16.8732   42.0121    8.3192 C.ar    1  UNL1        0.1566
      5 C          18.0295   42.8142    8.2155 C.ar    1  UNL1        0.0385
      6 C          18.0139   44.0043    7.4640 C.ar    1  UNL1        0.0037
      7 C          16.8459   44.4130    6.8032 C.ar    1  UNL1        0.0083
      8 N          14.5368   41.7590    7.6659 N.ar    1  UNL1       -0.2209
      9 S          14.1993   43.8395    6.2437 S.2     1  UNL1       -0.0513
     10 C          11.2071   41.9988    7.7389 C.2     1  UNL1        0.2721
     11 N          12.2698   41.8980    6.7841 N.am    1  UNL1       -0.2611
     12 O          11.3821   42.5492    8.8574 O.2     1  UNL1       -0.2707
     13 H          12.0662   41.4317    5.9412 H       1  UNL1        0.1569
     14 C           9.8643   41.4488    7.3988 C.3     1  UNL1        0.2897
     15 O           9.9648   40.0676    7.0655 O.3     1  UNL1       -0.4656
     16 C           9.9530   39.5910    5.7498 C.ar    1  UNL1        0.1393
     17 C          10.4456   40.3594    4.6818 C.ar    1  UNL1        0.0369
     18 C          10.4181   39.8544    3.3787 C.ar    1  UNL1        0.0031
     19 C           9.8975   38.5807    3.1341 C.ar    1  UNL1        0.0002
     20 C           9.4043   37.8126    4.1925 C.ar    1  UNL1        0.0031
     21 C           9.4320   38.3176    5.4962 C.ar    1  UNL1        0.0369
     22 O          16.8614   40.8225    9.0576 O.3     1  UNL1       -0.4739
     23 C          15.6984   40.3199    9.7060 C.3     1  UNL1        0.2056
     24 C          16.0631   39.1510   10.6018 C.3     1  UNL1        0.0512
@<TRIPOS>BOND
     1     1    11    1
     2     1     9   ar
     3    14    10    1
     4    14    15    1
     5    16    15    1
     6    17    18   ar
     7    19    20   ar
     8    21    16   ar
     9     2     9   ar
    10     3     4   ar
    11     3     8   ar
    12     4    22    1
    13     5     6   ar
    14     7     2   ar
    15    23    22    1
    16    23    24    1
    17    11    10   am
    18     1     8   ar
    19    10    12    2
    20    16    17   ar
    21    18    19   ar
    22    20    21   ar
    23     2     3   ar
    24     4     5   ar
    25     6     7   ar
    26    11    13    1
@<TRIPOS>MOLECULE
MolPort-009-685-328 6790940 CSSS03437122812 LN01384662 MCULE-7478355009 PubChem-4126701 ZINC000006790940
 24 26 0 0 0
SMALL
GASTEIGER

@<TRIPOS>ATOM
      1 C          13.4381   41.7927    7.5885 C.ar    1  UNL1        0.1657
      2 C          15.1508   43.1389    6.5051 C.ar    1  UNL1        0.0527
      3 C          15.5701   42.4645    7.6426 C.ar    1  UNL1        0.1230
      4 C          16.8893   42.5840    8.0908 C.ar    1  UNL1        0.1566
      5 C          17.7715   43.4031    7.3548 C.ar    1  UNL1        0.0385
      6 C          17.3306   44.0811    6.2027 C.ar    1  UNL1        0.0037
      7 C          16.0039   43.9524    5.7655 C.ar    1  UNL1        0.0083
      8 N          14.6172   41.7110    8.2502 N.ar    1  UNL1       -0.2209
      9 S          13.5328   42.7993    6.2242 S.2     1  UNL1       -0.0513
     10 C          12.0912   40.4524    9.3004 C.2     1  UNL1        0.2721
     11 N          12.2741   41.0814    8.0268 N.am    1  UNL1       -0.2611
     12 O          13.0037   40.4526   10.1677 O.2     1  UNL1       -0.2707
     13 H          11.5263   41.0188    7.3896 H       1  UNL1        0.1569
     14 C          10.7917   39.7915    9.6093 C.3     1  UNL1        0.2897
     15 O          10.2415   39.2068    8.4328 O.3     1  UNL1       -0.4656
     16 C           9.0638   39.6593    7.8273 C.ar    1  UNL1        0.1393
     17 C           8.4116   40.8255    8.2613 C.ar    1  UNL1        0.0369
     18 C           7.2357   41.2497    7.6357 C.ar    1  UNL1        0.0031
     19 C           6.7037   40.5118    6.5748 C.ar    1  UNL1        0.0002
     20 C           7.3472   39.3498    6.1401 C.ar    1  UNL1        0.0031
     21 C           8.5236   38.9255    6.7657 C.ar    1  UNL1        0.0369
     22 O          17.3016   41.8962    9.2387 O.3     1  UNL1       -0.4739
     23 C          17.6744   40.5227    9.2318 C.3     1  UNL1        0.2056
     24 C          16.9352   39.7747   10.3254 C.3     1  UNL1        0.0512
@<TRIPOS>BOND
     1     1    11    1
     2     1     9   ar
     3    14    10    1
     4    14    15    1
     5    16    15    1
     6    17    18   ar
     7    19    20   ar
     8    21    16   ar
     9     2     9   ar
    10     3     4   ar
    11     3     8   ar
    12     4    22    1
    13     5     6   ar
    14     7     2   ar
    15    23    22    1
    16    23    24    1
    17    11    10   am
    18     1     8   ar
    19    10    12    2
    20    16    17   ar
    21    18    19   ar
    22    20    21   ar
    23     2     3   ar
    24     4     5   ar
    25     6     7   ar
    26    11    13    1
@<TRIPOS>MOLECULE
MolPort-009-685-328 6790940 CSSS03437122812 LN01384662 MCULE-7478355009 PubChem-4126701 ZINC000006790940
 24 26 0 0 0
SMALL
GASTEIGER

@<TRIPOS>ATOM
      1 C           9.8761   42.5104    8.8687 C.ar    1  UNL1        0.1657
      2 C           7.7835   43.7382    8.6867 C.ar    1  UNL1        0.0527
      3 C           8.0224   42.8351    7.6612 C.ar    1  UNL1        0.1230
      4 C           7.0975   42.6807    6.6238 C.ar    1  UNL1        0.1566
      5 C           5.9244   43.4642    6.6549 C.ar    1  UNL1        0.0385
      6 C           5.6967   44.3763    7.7025 C.ar    1  UNL1        0.0037
      7 C           6.6341   44.5211    8.7360 C.ar    1  UNL1        0.0083
      8 N           9.1893   42.1469    7.7592 N.ar    1  UNL1       -0.2209
      9 S           9.0619   43.6963    9.7713 S.2     1  UNL1       -0.0513
     10 C          12.2650   41.7727    8.3303 C.2     1  UNL1        0.2721
     11 N          11.1392   41.9223    9.2028 N.am    1  UNL1       -0.2611
     12 O          12.2146   42.1410    7.1276 O.2     1  UNL1       -0.2707
     13 H          11.2434   41.5881   10.1230 H       1  UNL1        0.1569
     14 C          13.5248   41.1767    8.8584 C.3     1  UNL1        0.2897
     15 O          14.5325   41.1766    7.8518 O.3     1  UNL1       -0.4656
     16 C          15.5787   42.1052    7.8107 C.ar    1  UNL1        0.1393
     17 C          16.7306   41.9549    8.6007 C.ar    1  UNL1        0.0369
     18 C          17.7573   42.9014    8.5371 C.ar    1  UNL1        0.0031
     19 C          17.6393   44.0036    7.6859 C.ar    1  UNL1        0.0002
     20 C          16.4947   44.1592    6.8991 C.ar    1  UNL1        0.0031
     21 C          15.4678   43.2123    6.9625 C.ar    1  UNL1        0.0369
     22 O           7.3483   41.7639    5.5956 O.3     1  UNL1       -0.4739
     23 C           7.5683   40.3767    5.8255 C.3     1  UNL1        0.2056
     24 C           6.2885   39.7164    6.3029 C.3     1  UNL1        0.0512
@<TRIPOS>BOND
     1     1    11    1
     2     1     9   ar
     3    14    10    1
     4    14    15    1
     5    16    15    1
     6    17    18   ar
     7    19    20   ar
     8    21    16   ar
     9     2     9   ar
    10     3     4   ar
    11     3     8   ar
    12     4    22    1
    13     5     6   ar
    14     7     2   ar
    15    23    22    1
    16    23    24    1
    17    11    10   am
    18     1     8   ar
    19    10    12    2
    20    16    17   ar
    21    18    19   ar
    22    20    21   ar
    23     2     3   ar
    24     4     5   ar
    25     6     7   ar
    26    11    13    1
@<TRIPOS>MOLECULE
MolPort-009-685-328 6790940 CSSS03437122812 LN01384662 MCULE-7478355009 PubChem-4126701 ZINC000006790940
 24 26 0 0 0
SMALL
GASTEIGER

@<TRIPOS>ATOM
      1 C          12.3391   40.6844    9.1966 C.ar    1  UNL1        0.1657
      2 C          14.0989   39.5738   10.4574 C.ar    1  UNL1        0.0527
      3 C          14.5447   40.4617    9.4892 C.ar    1  UNL1        0.1230
      4 C          15.9139   40.6661    9.2925 C.ar    1  UNL1        0.1566
      5 C          16.8181   39.9485   10.1041 C.ar    1  UNL1        0.0385
      6 C          16.3498   39.0510   11.0821 C.ar    1  UNL1        0.0037
      7 C          14.9732   38.8554   11.2673 C.ar    1  UNL1        0.0083
      8 N          13.5655   41.0846    8.7835 N.ar    1  UNL1       -0.2209
      9 S          12.4221   39.5459   10.4538 S.2     1  UNL1       -0.0513
     10 C          10.2395   42.1448    9.2086 C.2     1  UNL1        0.2721
     11 N          11.1379   41.2023    8.6121 N.am    1  UNL1       -0.2611
     12 O          10.4346   42.5907   10.3695 O.2     1  UNL1       -0.2707
     13 H          10.9073   40.8782    7.7115 H       1  UNL1        0.1569
     14 C           9.0542   42.6140    8.4367 C.3     1  UNL1        0.2897
     15 O           7.8536   42.3146    9.1423 O.3     1  UNL1       -0.4656
     16 C           6.6302   42.9410    8.8792 C.ar    1  UNL1        0.1393
     17 C           6.5194   43.9792    7.9392 C.ar    1  UNL1        0.0369
     18 C           5.2824   44.5850    7.7007 C.ar    1  UNL1        0.0031
     19 C           4.1498   44.1591    8.4000 C.ar    1  UNL1        0.0002
     20 C           4.2545   43.1280    9.3378 C.ar    1  UNL1        0.0031
     21 C           5.4918   42.5218    9.5762 C.ar    1  UNL1        0.0369
     22 O          16.3519   41.5670    8.3142 O.3     1  UNL1       -0.4739
     23 C          17.2895   42.6054    8.5755 C.3     1  UNL1        0.2056
     24 C          16.8662   43.8813    7.8721 C.3     1  UNL1        0.0512
@<TRIPOS>BOND
     1     1    11    1
     2     1     9   ar
     3    14    10    1
     4    14    15    1
     5    16    15    1
     6    17    18   ar
     7    19    20   ar
     8    21    16   ar
     9     2     9   ar
    10     3     4   ar
    11     3     8   ar
    12     4    22    1
    13     5     6   ar
    14     7     2   ar
    15    23    22    1
    16    23    24    1
    17    11    10   am
    18     1     8   ar
    19    10    12    2
    20    16    17   ar
    21    18    19   ar
    22    20    21   ar
    23     2     3   ar
    24     4     5   ar
    25     6     7   ar
    26    11    13    1
