@<TRIPOS>MOLECULE
MolPort-047-015-607 MCULE-8485505057 PubChem-155985351
 27 30 0 0 0
SMALL
GASTEIGER

@<TRIPOS>ATOM
      1 C          12.4379   40.0493    8.5743 C.ar    1  UNL1        0.1411
      2 C          10.2430   40.6477    7.9313 C.ar    1  UNL1        0.0635
      3 C           8.7737   40.5097    8.1042 C.3     1  UNL1        0.0522
      4 C          10.7527   41.5080    6.9614 C.ar    1  UNL1        0.0492
      5 C          12.1405   41.6171    6.8219 C.ar    1  UNL1        0.1361
      6 N          11.0892   39.9356    8.7187 N.ar    1  UNL1       -0.2349
      7 N          12.9499   40.8848    7.6323 N.ar    1  UNL1       -0.2159
      8 C          13.3642   39.2649    9.4429 C.3     1  UNL1        0.0746
      9 C          13.0799   39.5362   10.9136 C.3     1  UNL1        0.0104
     10 C          14.0494   38.7390   11.7703 C.3     1  UNL1        0.0178
     11 C          15.4893   39.1010   11.3952 C.3     1  UNL1        0.0725
     12 C          14.8246   39.6006    9.1151 C.3     1  UNL1        0.0800
     13 N          15.7751   38.8750    9.9693 N.3     1  UNL1       -0.2660
     14 C          15.7285   37.4475    9.6605 C.3     1  UNL1        0.1368
     15 C          17.1061   36.8775    9.6494 C.ar    1  UNL1        0.1335
     16 C          18.9339   36.0497    8.9522 C.ar    1  UNL1        0.0943
     17 C          18.9839   36.1544   10.3286 C.ar    1  UNL1        0.1186
     18 N          17.7430   36.5073    8.5244 N.ar    1  UNL1       -0.3385
     19 N          17.8246   36.6779   10.7676 N.ar    1  UNL1       -0.2281
     20 H          17.4130   36.5593    7.5983 H       1  UNL1        0.1672
     21 N          12.7356   42.4820    5.8456 N.pl3   1  UNL1       -0.2781
     22 H          12.3263   42.4860    4.9503 H       1  UNL1        0.1555
     23 C          13.8653   43.3412    6.0407 C.ar    1  UNL1        0.1646
     24 C          15.9825   44.4034    6.7084 C.ar    1  UNL1        0.0588
     25 C          15.1869   45.1414    5.8307 C.ar    1  UNL1        0.1079
     26 N          14.0173   44.5502    5.4642 N.ar    1  UNL1       -0.2224
     27 S          15.1665   42.9620    7.0198 S.2     1  UNL1       -0.0508
@<TRIPOS>BOND
     1     1     7   ar
     2     8     1    1
     3     8     9    1
     4     9    10    1
     5    10    11    1
     6    11    13    1
     7    14    13    1
     8    14    15    1
     9    15    18   ar
    10    17    19   ar
    11    12    13    1
    12    12     8    1
    13     2     6   ar
    14     3     2    1
    15     4     5   ar
    16     5    21    1
    17    23    27   ar
    18    24    27   ar
    19    25    26   ar
    20    18    16   ar
    21    21    23    1
    22     1     6   ar
    23    15    19   ar
    24    16    17   ar
    25     2     4   ar
    26     5     7   ar
    27    23    26   ar
    28    24    25   ar
    29    18    20    1
    30    21    22    1
@<TRIPOS>MOLECULE
MolPort-047-015-607 MCULE-8485505057 PubChem-155985351
 27 30 0 0 0
SMALL
GASTEIGER

@<TRIPOS>ATOM
      1 C          14.7546   41.6082    7.9262 C.ar    1  UNL1        0.1411
      2 C          16.4622   43.1392    7.3524 C.ar    1  UNL1        0.0635
      3 C          16.9133   44.3277    6.5831 C.3     1  UNL1        0.0522
      4 C          17.3496   42.4801    8.2003 C.ar    1  UNL1        0.0492
      5 C          16.8962   41.3640    8.9117 C.ar    1  UNL1        0.1361
      6 N          15.1851   42.6953    7.2294 N.ar    1  UNL1       -0.2349
      7 N          15.6089   40.9551    8.7574 N.ar    1  UNL1       -0.2159
      8 C          13.3493   41.1245    7.7883 C.3     1  UNL1        0.0746
      9 C          12.4627   42.2124    7.1986 C.3     1  UNL1        0.0104
     10 C          11.0374   41.6967    7.0880 C.3     1  UNL1        0.0178
     11 C          10.5420   41.2461    8.4653 C.3     1  UNL1        0.0725
     12 C          12.7993   40.6712    9.1466 C.3     1  UNL1        0.0800
     13 N          11.4044   40.2161    9.0663 N.3     1  UNL1       -0.2660
     14 C          11.3314   38.9772    8.2949 C.3     1  UNL1        0.1368
     15 C          11.7003   37.8142    9.1518 C.ar    1  UNL1        0.1335
     16 C          11.5583   36.2238   10.5528 C.ar    1  UNL1        0.0943
     17 C          12.8507   36.2824   10.0687 C.ar    1  UNL1        0.1186
     18 N          10.8318   37.1958    9.9713 N.ar    1  UNL1       -0.3385
     19 N          12.9381   37.2912    9.1826 N.ar    1  UNL1       -0.2281
     20 H           9.8806   37.4063   10.1134 H       1  UNL1        0.1672
     21 N          17.7531   40.6369    9.8019 N.pl3   1  UNL1       -0.2781
     22 H          18.3521   41.1701   10.3730 H       1  UNL1        0.1555
     23 C          17.8262   39.2133    9.9447 C.ar    1  UNL1        0.1646
     24 C          18.4895   36.8709   10.3051 C.ar    1  UNL1        0.0588
     25 C          17.1483   37.0753    9.9773 C.ar    1  UNL1        0.1079
     26 N          16.7861   38.3720    9.7789 N.ar    1  UNL1       -0.2224
     27 S          19.2248   38.3870   10.3409 S.2     1  UNL1       -0.0508
@<TRIPOS>BOND
     1     1     7   ar
     2     8     1    1
     3     8     9    1
     4     9    10    1
     5    10    11    1
     6    11    13    1
     7    14    13    1
     8    14    15    1
     9    15    18   ar
    10    17    19   ar
    11    12    13    1
    12    12     8    1
    13     2     6   ar
    14     3     2    1
    15     4     5   ar
    16     5    21    1
    17    23    27   ar
    18    24    27   ar
    19    25    26   ar
    20    18    16   ar
    21    21    23    1
    22     1     6   ar
    23    15    19   ar
    24    16    17   ar
    25     2     4   ar
    26     5     7   ar
    27    23    26   ar
    28    24    25   ar
    29    18    20    1
    30    21    22    1
@<TRIPOS>MOLECULE
MolPort-047-015-607 MCULE-8485505057 PubChem-155985351
 27 30 0 0 0
SMALL
GASTEIGER

@<TRIPOS>ATOM
      1 C          12.6928   41.9223    7.1158 C.ar    1  UNL1        0.1411
      2 C          14.5023   43.2417    6.3581 C.ar    1  UNL1        0.0635
      3 C          15.0198   44.3309    5.4899 C.3     1  UNL1        0.0522
      4 C          15.3693   42.5534    7.2038 C.ar    1  UNL1        0.0492
      5 C          14.8531   41.5328    8.0096 C.ar    1  UNL1        0.1361
      6 N          13.1844   42.9172    6.3276 N.ar    1  UNL1       -0.2349
      7 N          13.5267   41.2420    7.9461 N.ar    1  UNL1       -0.2159
      8 C          11.2430   41.5697    7.0793 C.3     1  UNL1        0.0746
      9 C          10.5312   42.0963    8.3175 C.3     1  UNL1        0.0104
     10 C           9.0635   41.7061    8.2600 C.3     1  UNL1        0.0178
     11 C           8.9371   40.1849    8.1375 C.3     1  UNL1        0.0725
     12 C          11.0601   40.0507    6.9690 C.3     1  UNL1        0.0800
     13 N           9.6456   39.6523    6.9626 N.3     1  UNL1       -0.2660
     14 C           9.0073   40.1122    5.7312 C.3     1  UNL1        0.1368
     15 C           9.3309   39.1880    4.6069 C.ar    1  UNL1        0.1335
     16 C          10.0134   37.4841    3.5377 C.ar    1  UNL1        0.0943
     17 C           9.5321   38.4158    2.6387 C.ar    1  UNL1        0.1186
     18 N           9.8858   37.9759    4.7837 N.ar    1  UNL1       -0.3385
     19 N           9.1016   39.4944    3.3184 N.ar    1  UNL1       -0.2281
     20 H          10.1408   37.5461    5.6320 H       1  UNL1        0.1672
     21 N          15.6858   40.7824    8.9035 N.pl3   1  UNL1       -0.2781
     22 H          16.6583   40.8591    8.7713 H       1  UNL1        0.1555
     23 C          15.2463   39.9324    9.9696 C.ar    1  UNL1        0.1646
     24 C          14.9994   38.2449   11.7440 C.ar    1  UNL1        0.0588
     25 C          13.8954   39.0745   11.5414 C.ar    1  UNL1        0.1079
     26 N          14.0363   40.0059   10.5594 N.ar    1  UNL1       -0.2224
     27 S          16.1807   38.7180   10.6389 S.2     1  UNL1       -0.0508
@<TRIPOS>BOND
     1     1     7   ar
     2     8     1    1
     3     8     9    1
     4     9    10    1
     5    10    11    1
     6    11    13    1
     7    14    13    1
     8    14    15    1
     9    15    18   ar
    10    17    19   ar
    11    12    13    1
    12    12     8    1
    13     2     6   ar
    14     3     2    1
    15     4     5   ar
    16     5    21    1
    17    23    27   ar
    18    24    27   ar
    19    25    26   ar
    20    18    16   ar
    21    21    23    1
    22     1     6   ar
    23    15    19   ar
    24    16    17   ar
    25     2     4   ar
    26     5     7   ar
    27    23    26   ar
    28    24    25   ar
    29    18    20    1
    30    21    22    1
@<TRIPOS>MOLECULE
MolPort-047-015-607 MCULE-8485505057 PubChem-155985351
 27 30 0 0 0
SMALL
GASTEIGER

@<TRIPOS>ATOM
      1 C          13.9172   42.0475    7.6345 C.ar    1  UNL1        0.1411
      2 C          15.7899   43.3584    7.0312 C.ar    1  UNL1        0.0635
      3 C          16.3655   44.5002    6.2745 C.3     1  UNL1        0.0522
      4 C          16.6128   42.5636    7.8262 C.ar    1  UNL1        0.0492
      5 C          16.0423   41.4956    8.5270 C.ar    1  UNL1        0.1361
      6 N          14.4618   43.0893    6.9484 N.ar    1  UNL1       -0.2349
      7 N          14.7077   41.2634    8.4142 N.ar    1  UNL1       -0.2159
      8 C          12.4564   41.7562    7.5408 C.3     1  UNL1        0.0746
      9 C          11.7273   42.2652    8.7763 C.3     1  UNL1        0.0104
     10 C          10.2478   41.9379    8.6597 C.3     1  UNL1        0.0178
     11 C          10.0649   40.4287    8.4752 C.3     1  UNL1        0.0725
     12 C          12.2168   40.2511    7.3669 C.3     1  UNL1        0.0800
     13 N          10.7884   39.9115    7.3026 N.3     1  UNL1       -0.2660
     14 C          10.2083   40.4425    6.0711 C.3     1  UNL1        0.1368
     15 C           8.7242   40.3027    6.0986 C.ar    1  UNL1        0.1335
     16 C           6.6579   40.7956    6.0999 C.ar    1  UNL1        0.0943
     17 C           6.7929   39.4238    6.1894 C.ar    1  UNL1        0.1186
     18 N           7.8827   41.3502    6.0435 N.ar    1  UNL1       -0.3385
     19 N           8.1025   39.1145    6.1896 N.ar    1  UNL1       -0.2281
     20 H           8.1108   42.3056    5.9771 H       1  UNL1        0.1672
     21 N          16.8277   40.6361    9.3637 N.pl3   1  UNL1       -0.2781
     22 H          17.7999   40.7913    9.3684 H       1  UNL1        0.1555
     23 C          16.3415   39.5744   10.1935 C.ar    1  UNL1        0.1646
     24 C          15.0162   38.0141   11.5595 C.ar    1  UNL1        0.0588
     25 C          16.3730   37.7093   11.4394 C.ar    1  UNL1        0.1079
     26 N          17.1018   38.5747   10.6832 N.ar    1  UNL1       -0.2224
     27 S          14.7477   39.4241   10.6762 S.2     1  UNL1       -0.0508
@<TRIPOS>BOND
     1     1     7   ar
     2     8     1    1
     3     8     9    1
     4     9    10    1
     5    10    11    1
     6    11    13    1
     7    14    13    1
     8    14    15    1
     9    15    18   ar
    10    17    19   ar
    11    12    13    1
    12    12     8    1
    13     2     6   ar
    14     3     2    1
    15     4     5   ar
    16     5    21    1
    17    23    27   ar
    18    24    27   ar
    19    25    26   ar
    20    18    16   ar
    21    21    23    1
    22     1     6   ar
    23    15    19   ar
    24    16    17   ar
    25     2     4   ar
    26     5     7   ar
    27    23    26   ar
    28    24    25   ar
    29    18    20    1
    30    21    22    1
@<TRIPOS>MOLECULE
MolPort-047-015-607 MCULE-8485505057 PubChem-155985351
 27 30 0 0 0
SMALL
GASTEIGER

@<TRIPOS>ATOM
      1 C          11.3060   41.4092    9.8652 C.ar    1  UNL1        0.1411
      2 C          13.2064   40.1266   10.4419 C.ar    1  UNL1        0.0635
      3 C          13.9116   39.2408   11.4041 C.3     1  UNL1        0.0522
      4 C          13.8169   40.4750    9.2391 C.ar    1  UNL1        0.0492
      5 C          13.1284   41.3106    8.3531 C.ar    1  UNL1        0.1361
      6 N          11.9668   40.5967   10.7346 N.ar    1  UNL1       -0.2349
      7 N          11.8889   41.7576    8.6878 N.ar    1  UNL1       -0.2159
      8 C           9.9430   41.9228   10.1911 C.3     1  UNL1        0.0746
      9 C           9.5314   41.5001   11.5943 C.3     1  UNL1        0.0104
     10 C           8.1347   42.0215   11.8890 C.3     1  UNL1        0.0178
     11 C           7.1556   41.5043   10.8311 C.3     1  UNL1        0.0725
     12 C           8.9186   41.4220    9.1651 C.3     1  UNL1        0.0800
     13 N           7.5534   41.8763    9.4639 N.3     1  UNL1       -0.2660
     14 C           7.4624   43.3235    9.2829 C.3     1  UNL1        0.1368
     15 C           6.0924   43.7013    8.8323 C.ar    1  UNL1        0.1335
     16 C           3.9765   43.8726    8.7568 C.ar    1  UNL1        0.0943
     17 C           4.5202   44.5387    7.6758 C.ar    1  UNL1        0.1186
     18 N           4.9743   43.3421    9.4873 N.ar    1  UNL1       -0.3385
     19 N           5.8603   44.4277    7.7254 N.ar    1  UNL1       -0.2281
     20 H           4.9021   42.8116   10.3135 H       1  UNL1        0.1672
     21 N          13.6945   41.7103    7.0980 N.pl3   1  UNL1       -0.2781
     22 H          13.4243   41.1919    6.3059 H       1  UNL1        0.1555
     23 C          14.6134   42.7874    6.8795 C.ar    1  UNL1        0.1646
     24 C          15.8032   44.8113    6.1414 C.ar    1  UNL1        0.0588
     25 C          16.4611   44.0399    7.1006 C.ar    1  UNL1        0.1079
     26 N          15.7996   42.9218    7.5058 N.ar    1  UNL1       -0.2224
     27 S          14.3418   44.0412    5.8072 S.2     1  UNL1       -0.0508
@<TRIPOS>BOND
     1     1     7   ar
     2     8     1    1
     3     8     9    1
     4     9    10    1
     5    10    11    1
     6    11    13    1
     7    14    13    1
     8    14    15    1
     9    15    18   ar
    10    17    19   ar
    11    12    13    1
    12    12     8    1
    13     2     6   ar
    14     3     2    1
    15     4     5   ar
    16     5    21    1
    17    23    27   ar
    18    24    27   ar
    19    25    26   ar
    20    18    16   ar
    21    21    23    1
    22     1     6   ar
    23    15    19   ar
    24    16    17   ar
    25     2     4   ar
    26     5     7   ar
    27    23    26   ar
    28    24    25   ar
    29    18    20    1
    30    21    22    1
@<TRIPOS>MOLECULE
MolPort-047-015-607 MCULE-8485505057 PubChem-155985351
 27 30 0 0 0
SMALL
GASTEIGER

@<TRIPOS>ATOM
      1 C           9.3783   41.5627    7.7673 C.ar    1  UNL1        0.1411
      2 C           7.4886   42.7034    6.9204 C.ar    1  UNL1        0.0635
      3 C           6.8580   43.5253    5.8552 C.3     1  UNL1        0.0522
      4 C           6.7506   42.3302    8.0415 C.ar    1  UNL1        0.0492
      5 C           7.3713   41.5562    9.0279 C.ar    1  UNL1        0.1361
      6 N           8.7842   42.3157    6.8014 N.ar    1  UNL1       -0.2349
      7 N           8.6707   41.1909    8.8667 N.ar    1  UNL1       -0.2159
      8 C          10.8028   41.1382    7.6315 C.3     1  UNL1        0.0746
      9 C          11.0135   39.7617    8.2463 C.3     1  UNL1        0.0104
     10 C          12.4744   39.3661    8.1090 C.3     1  UNL1        0.0178
     11 C          13.3613   40.4245    8.7711 C.3     1  UNL1        0.0725
     12 C          11.7356   42.1616    8.2915 C.3     1  UNL1        0.0800
     13 N          13.1495   41.7691    8.2114 N.3     1  UNL1       -0.2660
     14 C          13.5994   41.8191    6.8221 C.3     1  UNL1        0.1368
     15 C          14.3880   43.0611    6.5803 C.ar    1  UNL1        0.1335
     16 C          15.9483   44.5001    6.6632 C.ar    1  UNL1        0.0943
     17 C          14.9373   44.9795    5.8533 C.ar    1  UNL1        0.1186
     18 N          15.5976   43.2852    7.1234 N.ar    1  UNL1       -0.3385
     19 N          13.9499   44.0667    5.8034 N.ar    1  UNL1       -0.2281
     20 H          16.1100   42.6947    7.7217 H       1  UNL1        0.1672
     21 N           6.6737   41.1357   10.2077 N.pl3   1  UNL1       -0.2781
     22 H           7.1973   40.6401   10.8781 H       1  UNL1        0.1555
     23 C           5.2921   41.3636   10.5102 C.ar    1  UNL1        0.1646
     24 C           2.8391   41.5632   10.5104 C.ar    1  UNL1        0.0588
     25 C           3.4776   41.9602   11.6864 C.ar    1  UNL1        0.1079
     26 N           4.8337   41.8481   11.6818 N.ar    1  UNL1       -0.2224
     27 S           4.0416   41.0578    9.4431 S.2     1  UNL1       -0.0508
@<TRIPOS>BOND
     1     1     7   ar
     2     8     1    1
     3     8     9    1
     4     9    10    1
     5    10    11    1
     6    11    13    1
     7    14    13    1
     8    14    15    1
     9    15    18   ar
    10    17    19   ar
    11    12    13    1
    12    12     8    1
    13     2     6   ar
    14     3     2    1
    15     4     5   ar
    16     5    21    1
    17    23    27   ar
    18    24    27   ar
    19    25    26   ar
    20    18    16   ar
    21    21    23    1
    22     1     6   ar
    23    15    19   ar
    24    16    17   ar
    25     2     4   ar
    26     5     7   ar
    27    23    26   ar
    28    24    25   ar
    29    18    20    1
    30    21    22    1
@<TRIPOS>MOLECULE
MolPort-047-015-607 MCULE-8485505057 PubChem-155985351
 27 30 0 0 0
SMALL
GASTEIGER

@<TRIPOS>ATOM
      1 C          14.3652   41.7582    7.9170 C.ar    1  UNL1        0.1411
      2 C          15.9482   43.2902    7.0590 C.ar    1  UNL1        0.0635
      3 C          16.2723   44.4364    6.1707 C.3     1  UNL1        0.0522
      4 C          16.9451   42.7109    7.8408 C.ar    1  UNL1        0.0492
      5 C          16.6099   41.6331    8.6675 C.ar    1  UNL1        0.1361
      6 N          14.6804   42.8074    7.1092 N.ar    1  UNL1       -0.2349
      7 N          15.3274   41.1828    8.6856 N.ar    1  UNL1       -0.2159
      8 C          12.9697   41.2314    7.9694 C.3     1  UNL1        0.0746
      9 C          12.9714   39.7096    8.0054 C.3     1  UNL1        0.0104
     10 C          11.5386   39.2041    8.0396 C.3     1  UNL1        0.0178
     11 C          10.7714   39.7416    6.8282 C.3     1  UNL1        0.0725
     12 C          12.1590   41.7319    6.7672 C.3     1  UNL1        0.0800
     13 N          10.7847   41.2116    6.7583 N.3     1  UNL1       -0.2660
     14 C          10.0323   41.7814    7.8739 C.3     1  UNL1        0.1368
     15 C           8.7021   42.2645    7.4049 C.ar    1  UNL1        0.1335
     16 C           7.1374   42.9201    6.1266 C.ar    1  UNL1        0.0943
     17 C           6.6844   42.9268    7.4315 C.ar    1  UNL1        0.1186
     18 N           8.4161   42.5012    6.1125 N.ar    1  UNL1       -0.3385
     19 N           7.6777   42.5123    8.2390 N.ar    1  UNL1       -0.2281
     20 H           9.0077   42.3927    5.3331 H       1  UNL1        0.1672
     21 N          17.5835   40.9880    9.4989 N.pl3   1  UNL1       -0.2781
     22 H          18.4254   41.4744    9.6531 H       1  UNL1        0.1555
     23 C          17.4556   39.7073   10.1281 C.ar    1  UNL1        0.1646
     24 C          17.7582   37.4343   11.0219 C.ar    1  UNL1        0.0588
     25 C          16.5195   38.0243   11.2782 C.ar    1  UNL1        0.1079
     26 N          16.3567   39.2809   10.7821 N.ar    1  UNL1       -0.2224
     27 S          18.6626   38.5502   10.1402 S.2     1  UNL1       -0.0508
@<TRIPOS>BOND
     1     1     7   ar
     2     8     1    1
     3     8     9    1
     4     9    10    1
     5    10    11    1
     6    11    13    1
     7    14    13    1
     8    14    15    1
     9    15    18   ar
    10    17    19   ar
    11    12    13    1
    12    12     8    1
    13     2     6   ar
    14     3     2    1
    15     4     5   ar
    16     5    21    1
    17    23    27   ar
    18    24    27   ar
    19    25    26   ar
    20    18    16   ar
    21    21    23    1
    22     1     6   ar
    23    15    19   ar
    24    16    17   ar
    25     2     4   ar
    26     5     7   ar
    27    23    26   ar
    28    24    25   ar
    29    18    20    1
    30    21    22    1
@<TRIPOS>MOLECULE
MolPort-047-015-607 MCULE-8485505057 PubChem-155985351
 27 30 0 0 0
SMALL
GASTEIGER

@<TRIPOS>ATOM
      1 C          14.8412   41.4680    8.0913 C.ar    1  UNL1        0.1411
      2 C          15.4560   43.3519    6.8020 C.ar    1  UNL1        0.0635
      3 C          16.4312   44.4284    6.4889 C.3     1  UNL1        0.0522
      4 C          14.2677   43.2568    6.0812 C.ar    1  UNL1        0.0492
      5 C          13.3690   42.2328    6.3986 C.ar    1  UNL1        0.1361
      6 N          15.7228   42.4605    7.7906 N.ar    1  UNL1       -0.2349
      7 N          13.6777   41.3627    7.3964 N.ar    1  UNL1       -0.2159
      8 C          15.1394   40.4899    9.1785 C.3     1  UNL1        0.0746
      9 C          16.6036   40.5709    9.5867 C.3     1  UNL1        0.0104
     10 C          16.8796   39.5522   10.6801 C.3     1  UNL1        0.0178
     11 C          16.5049   38.1511   10.1884 C.3     1  UNL1        0.0725
     12 C          14.7922   39.0642    8.7312 C.3     1  UNL1        0.0800
     13 N          15.1001   38.0604    9.7594 N.3     1  UNL1       -0.2660
     14 C          14.2063   38.2322   10.9025 C.3     1  UNL1        0.1368
     15 C          12.9841   37.3957   10.7312 C.ar    1  UNL1        0.1335
     16 C          11.6488   35.7458   10.8155 C.ar    1  UNL1        0.0943
     17 C          11.0274   36.7942   10.1654 C.ar    1  UNL1        0.1186
     18 N          12.8885   36.1289   11.1720 N.ar    1  UNL1       -0.3385
     19 N          11.8757   37.8374   10.1124 N.ar    1  UNL1       -0.2281
     20 H          13.5705   35.6016   11.6475 H       1  UNL1        0.1672
     21 N          12.1275   42.0741    5.6993 N.pl3   1  UNL1       -0.2781
     22 H          12.1498   42.2038    4.7236 H       1  UNL1        0.1555
     23 C          10.8578   41.7461    6.2762 C.ar    1  UNL1        0.1646
     24 C           8.9353   41.3049    7.7479 C.ar    1  UNL1        0.0588
     25 C           8.7095   41.1101    6.3844 C.ar    1  UNL1        0.1079
     26 N           9.7752   41.3552    5.5745 N.ar    1  UNL1       -0.2224
     27 S          10.5368   41.8023    7.9161 S.2     1  UNL1       -0.0508
@<TRIPOS>BOND
     1     1     7   ar
     2     8     1    1
     3     8     9    1
     4     9    10    1
     5    10    11    1
     6    11    13    1
     7    14    13    1
     8    14    15    1
     9    15    18   ar
    10    17    19   ar
    11    12    13    1
    12    12     8    1
    13     2     6   ar
    14     3     2    1
    15     4     5   ar
    16     5    21    1
    17    23    27   ar
    18    24    27   ar
    19    25    26   ar
    20    18    16   ar
    21    21    23    1
    22     1     6   ar
    23    15    19   ar
    24    16    17   ar
    25     2     4   ar
    26     5     7   ar
    27    23    26   ar
    28    24    25   ar
    29    18    20    1
    30    21    22    1
@<TRIPOS>MOLECULE
MolPort-047-015-607 MCULE-8485505057 PubChem-155985351
 27 30 0 0 0
SMALL
GASTEIGER

@<TRIPOS>ATOM
      1 C          14.1710   41.3930    8.3259 C.ar    1  UNL1        0.1411
      2 C          15.5609   42.8959    7.1434 C.ar    1  UNL1        0.0635
      3 C          15.7180   43.9656    6.1241 C.3     1  UNL1        0.0522
      4 C          16.6731   42.4289    7.8404 C.ar    1  UNL1        0.0492
      5 C          16.4942   41.4211    8.7942 C.ar    1  UNL1        0.1361
      6 N          14.3336   42.3734    7.3958 N.ar    1  UNL1       -0.2349
      7 N          15.2468   40.9275    9.0140 N.ar    1  UNL1       -0.2159
      8 C          12.8194   40.8223    8.6006 C.3     1  UNL1        0.0746
      9 C          12.6254   40.5963   10.0934 C.3     1  UNL1        0.0104
     10 C          11.2498   39.9987   10.3386 C.3     1  UNL1        0.0178
     11 C          11.1020   38.6977    9.5444 C.3     1  UNL1        0.0725
     12 C          12.6240   39.5070    7.8359 C.3     1  UNL1        0.0800
     13 N          11.3170   38.8898    8.1012 N.3     1  UNL1       -0.2660
     14 C          10.2545   39.7168    7.5335 C.3     1  UNL1        0.1368
     15 C          10.1591   39.4947    6.0623 C.ar    1  UNL1        0.1335
     16 C           9.7857   38.5649    4.1893 C.ar    1  UNL1        0.0943
     17 C          10.2954   39.8297    3.9695 C.ar    1  UNL1        0.1186
     18 N           9.7012   38.3546    5.5157 N.ar    1  UNL1       -0.3385
     19 N          10.5321   40.4159    5.1574 N.ar    1  UNL1       -0.2281
     20 H           9.3778   37.5492    5.9804 H       1  UNL1        0.1672
     21 N          17.5924   40.8924    9.5490 N.pl3   1  UNL1       -0.2781
     22 H          18.3633   41.4894    9.6856 H       1  UNL1        0.1555
     23 C          17.6820   39.5836   10.1247 C.ar    1  UNL1        0.1646
     24 C          18.3521   37.3454   10.8980 C.ar    1  UNL1        0.0588
     25 C          17.0583   37.7409   11.2414 C.ar    1  UNL1        0.1079
     26 N          16.6922   38.9791   10.8117 N.ar    1  UNL1       -0.2224
     27 S          19.0394   38.6124   10.0247 S.2     1  UNL1       -0.0508
@<TRIPOS>BOND
     1     1     7   ar
     2     8     1    1
     3     8     9    1
     4     9    10    1
     5    10    11    1
     6    11    13    1
     7    14    13    1
     8    14    15    1
     9    15    18   ar
    10    17    19   ar
    11    12    13    1
    12    12     8    1
    13     2     6   ar
    14     3     2    1
    15     4     5   ar
    16     5    21    1
    17    23    27   ar
    18    24    27   ar
    19    25    26   ar
    20    18    16   ar
    21    21    23    1
    22     1     6   ar
    23    15    19   ar
    24    16    17   ar
    25     2     4   ar
    26     5     7   ar
    27    23    26   ar
    28    24    25   ar
    29    18    20    1
    30    21    22    1
@<TRIPOS>MOLECULE
MolPort-047-015-607 MCULE-8485505057 PubChem-155985351
 27 30 0 0 0
SMALL
GASTEIGER

@<TRIPOS>ATOM
      1 C          13.9890   41.9331    7.6361 C.ar    1  UNL1        0.1411
      2 C          15.6508   43.4848    6.9882 C.ar    1  UNL1        0.0635
      3 C          16.0457   44.6961    6.2236 C.3     1  UNL1        0.0522
      4 C          16.5960   42.8044    7.7525 C.ar    1  UNL1        0.0492
      5 C          16.1946   41.6671    8.4617 C.ar    1  UNL1        0.1361
      6 N          14.3686   43.0409    6.9423 N.ar    1  UNL1       -0.2349
      7 N          14.9001   41.2590    8.3863 N.ar    1  UNL1       -0.2159
      8 C          12.5780   41.4495    7.5831 C.3     1  UNL1        0.0746
      9 C          12.1155   41.3002    6.1405 C.3     1  UNL1        0.0104
     10 C          10.6721   40.8250    6.1201 C.3     1  UNL1        0.0178
     11 C           9.7928   41.8079    6.8985 C.3     1  UNL1        0.0725
     12 C          11.6505   42.4084    8.3402 C.3     1  UNL1        0.0800
     13 N          10.2428   41.9898    8.2878 N.3     1  UNL1       -0.2660
     14 C          10.0652   40.7538    9.0467 C.3     1  UNL1        0.1368
     15 C           9.3581   41.0336   10.3291 C.ar    1  UNL1        0.1335
     16 C           7.8319   41.5562   11.7111 C.ar    1  UNL1        0.0943
     17 C           8.9927   41.2795   12.4067 C.ar    1  UNL1        0.1186
     18 N           8.0662   41.4008   10.3951 N.ar    1  UNL1       -0.3385
     19 N           9.9579   40.9500   11.5291 N.ar    1  UNL1       -0.2281
     20 H           7.4352   41.5271    9.6501 H       1  UNL1        0.1672
     21 N          17.1126   40.9174    9.2684 N.pl3   1  UNL1       -0.2781
     22 H          18.0521   41.2115    9.2587 H       1  UNL1        0.1555
     23 C          16.8015   39.7837   10.0872 C.ar    1  UNL1        0.1646
     24 C          16.8079   37.7142   11.4191 C.ar    1  UNL1        0.0588
     25 C          15.5823   38.3773   11.3391 C.ar    1  UNL1        0.1079
     26 N          15.5835   39.5210   10.6018 N.ar    1  UNL1       -0.2224
     27 S          17.9154   38.6159   10.5242 S.2     1  UNL1       -0.0508
@<TRIPOS>BOND
     1     1     7   ar
     2     8     1    1
     3     8     9    1
     4     9    10    1
     5    10    11    1
     6    11    13    1
     7    14    13    1
     8    14    15    1
     9    15    18   ar
    10    17    19   ar
    11    12    13    1
    12    12     8    1
    13     2     6   ar
    14     3     2    1
    15     4     5   ar
    16     5    21    1
    17    23    27   ar
    18    24    27   ar
    19    25    26   ar
    20    18    16   ar
    21    21    23    1
    22     1     6   ar
    23    15    19   ar
    24    16    17   ar
    25     2     4   ar
    26     5     7   ar
    27    23    26   ar
    28    24    25   ar
    29    18    20    1
    30    21    22    1
