@<TRIPOS>MOLECULE
MolPort-016-617-167 65451904 CSSS00159537219 MCULE-6098239325 PubChem-50972509 ZINC000065451904 ZINC65451904
 24 25 0 0 0
SMALL
GASTEIGER

@<TRIPOS>ATOM
      1 C          11.6082   41.7994    7.7784 C.2     1  UNL1        0.2568
      2 O          11.2823   41.8894    6.5636 O.2     1  UNL1       -0.2693
      3 N          12.9616   41.4300    8.1188 N.am    1  UNL1       -0.2674
      4 C           9.3084   41.5096    8.8766 C.ar    1  UNL1        0.0613
      5 C          10.5762   42.0817    8.8043 C.ar    1  UNL1        0.0965
      6 C           9.1289   43.0123   10.6706 C.ar    1  UNL1        0.0369
      7 C           8.5114   42.0196    9.9158 C.ar    1  UNL1        0.0223
      8 S          10.6650   43.2352   10.0233 S.2     1  UNL1       -0.0807
      9 C           8.8124   38.1911    6.9262 C.3     1  UNL1        0.0949
     10 C           9.3669   39.1346    7.9309 C.2     1  UNL1        0.2266
     11 O          10.2571   38.7361    8.7276 O.2     1  UNL1       -0.2748
     12 N           8.8777   40.4798    7.9747 N.am    1  UNL1       -0.2834
     13 H           8.1794   40.7211    7.3241 H       1  UNL1        0.1549
     14 C          13.3292   41.0126    9.4667 C.3     1  UNL1        0.1205
     15 C          13.3737   39.5225    9.5563 C.2     1  UNL1       -0.0047
     16 C          13.4890   38.9321   10.7409 C.2     1  UNL1       -0.0031
     17 C          13.9991   41.3845    7.0892 C.3     1  UNL1        0.1205
     18 C          15.1598   42.2620    7.4522 C.ar    1  UNL1       -0.0063
     19 C          15.2953   43.5561    6.9124 C.ar    1  UNL1       -0.0242
     20 C          14.2941   44.1124    5.9571 C.3     1  UNL1        0.0308
     21 C          16.3871   44.3504    7.2778 C.ar    1  UNL1       -0.0045
     22 C          17.3396   43.8686    8.1793 C.ar    1  UNL1       -0.0003
     23 C          17.2027   42.5895    8.7229 C.ar    1  UNL1       -0.0003
     24 C          16.1150   41.7901    8.3622 C.ar    1  UNL1       -0.0029
@<TRIPOS>BOND
     1     9    10    1
     2    10    12   am
     3     5     8   ar
     4     5     1    1
     5     6     8   ar
     6     7     4   ar
     7     1     3   am
     8    14     3    1
     9    14    15    1
    10    17     3    1
    11    17    18    1
    12    19    21   ar
    13    20    19    1
    14    22    23   ar
    15    24    18   ar
    16    12     4    1
    17    10    11    2
    18     4     5   ar
    19     6     7   ar
    20     1     2    2
    21    15    16    2
    22    18    19   ar
    23    21    22   ar
    24    23    24   ar
    25    12    13    1
@<TRIPOS>MOLECULE
MolPort-016-617-167 65451904 CSSS00159537219 MCULE-6098239325 PubChem-50972509 ZINC000065451904 ZINC65451904
 24 25 0 0 0
SMALL
GASTEIGER

@<TRIPOS>ATOM
      1 C          11.2984   41.3762    6.1791 C.2     1  UNL1        0.2568
      2 O          11.6223   40.9958    5.0213 O.2     1  UNL1       -0.2693
      3 N          12.2437   42.1381    6.9600 N.am    1  UNL1       -0.2674
      4 C           9.2212   39.8811    6.3500 C.ar    1  UNL1        0.0613
      5 C           9.9508   41.0198    6.6833 C.ar    1  UNL1        0.0965
      6 C           7.6276   40.9474    7.7036 C.ar    1  UNL1        0.0369
      7 C           7.9385   39.8383    6.9228 C.ar    1  UNL1        0.0223
      8 S           8.9661   41.9647    7.6640 S.2     1  UNL1       -0.0807
      9 C          10.1656   37.5660    3.3817 C.3     1  UNL1        0.0949
     10 C           9.5401   38.7049    4.1021 C.2     1  UNL1        0.2266
     11 O           8.8333   39.5276    3.4623 O.2     1  UNL1       -0.2748
     12 N           9.7537   38.8457    5.5112 N.am    1  UNL1       -0.2834
     13 H          10.3197   38.1675    5.9458 H       1  UNL1        0.1549
     14 C          12.0672   42.3466    8.3924 C.3     1  UNL1        0.1205
     15 C          11.9699   41.0356    9.1011 C.2     1  UNL1       -0.0047
     16 C          11.4900   40.9845   10.3390 C.2     1  UNL1       -0.0031
     17 C          13.4633   42.6602    6.3449 C.3     1  UNL1        0.1205
     18 C          14.6601   42.3980    7.2099 C.ar    1  UNL1       -0.0063
     19 C          15.7497   43.2903    7.2409 C.ar    1  UNL1       -0.0242
     20 C          15.7645   44.5335    6.4171 C.3     1  UNL1        0.0308
     21 C          16.8473   43.0182    8.0642 C.ar    1  UNL1       -0.0045
     22 C          16.8649   41.8695    8.8594 C.ar    1  UNL1       -0.0003
     23 C          15.7818   40.9880    8.8374 C.ar    1  UNL1       -0.0003
     24 C          14.6823   41.2530    8.0171 C.ar    1  UNL1       -0.0029
@<TRIPOS>BOND
     1     9    10    1
     2    10    12   am
     3     5     8   ar
     4     5     1    1
     5     6     8   ar
     6     7     4   ar
     7     1     3   am
     8    14     3    1
     9    14    15    1
    10    17     3    1
    11    17    18    1
    12    19    21   ar
    13    20    19    1
    14    22    23   ar
    15    24    18   ar
    16    12     4    1
    17    10    11    2
    18     4     5   ar
    19     6     7   ar
    20     1     2    2
    21    15    16    2
    22    18    19   ar
    23    21    22   ar
    24    23    24   ar
    25    12    13    1
@<TRIPOS>MOLECULE
MolPort-016-617-167 65451904 CSSS00159537219 MCULE-6098239325 PubChem-50972509 ZINC000065451904 ZINC65451904
 24 25 0 0 0
SMALL
GASTEIGER

@<TRIPOS>ATOM
      1 C          11.1051   41.9542    8.6620 C.2     1  UNL1        0.2568
      2 O          11.8745   42.1008    9.6502 O.2     1  UNL1       -0.2693
      3 N          11.6595   41.5500    7.3919 N.am    1  UNL1       -0.2674
      4 C           8.6330   41.2723    8.7143 C.ar    1  UNL1        0.0613
      5 C           9.6572   42.2052    8.8569 C.ar    1  UNL1        0.0965
      6 C           7.3301   43.1736    9.1573 C.ar    1  UNL1        0.0369
      7 C           7.3456   41.8081    8.8896 C.ar    1  UNL1        0.0223
      8 S           8.9311   43.6881    9.1703 S.2     1  UNL1       -0.0807
      9 C           8.8456   37.7419    7.1162 C.3     1  UNL1        0.0949
     10 C           8.5046   39.1820    7.2471 C.2     1  UNL1        0.2266
     11 O           7.8849   39.7577    6.3142 O.2     1  UNL1       -0.2748
     12 N           8.8880   39.8885    8.4323 N.am    1  UNL1       -0.2834
     13 H           9.3727   39.3760    9.1191 H       1  UNL1        0.1549
     14 C          10.8990   41.6551    6.1521 C.3     1  UNL1        0.1205
     15 C          11.2710   40.5508    5.2181 C.2     1  UNL1       -0.0047
     16 C          10.4791   40.2530    4.1937 C.2     1  UNL1       -0.0031
     17 C          13.0459   41.0944    7.2993 C.3     1  UNL1        0.1205
     18 C          13.9719   42.2367    7.0045 C.ar    1  UNL1       -0.0063
     19 C          15.2289   42.3398    7.6321 C.ar    1  UNL1       -0.0242
     20 C          15.6961   41.3213    8.6164 C.3     1  UNL1        0.0308
     21 C          16.0706   43.4151    7.3289 C.ar    1  UNL1       -0.0045
     22 C          15.6729   44.3829    6.4030 C.ar    1  UNL1       -0.0003
     23 C          14.4310   44.2780    5.7727 C.ar    1  UNL1       -0.0003
     24 C          13.5848   43.2069    6.0709 C.ar    1  UNL1       -0.0029
@<TRIPOS>BOND
     1     9    10    1
     2    10    12   am
     3     5     8   ar
     4     5     1    1
     5     6     8   ar
     6     7     4   ar
     7     1     3   am
     8    14     3    1
     9    14    15    1
    10    17     3    1
    11    17    18    1
    12    19    21   ar
    13    20    19    1
    14    22    23   ar
    15    24    18   ar
    16    12     4    1
    17    10    11    2
    18     4     5   ar
    19     6     7   ar
    20     1     2    2
    21    15    16    2
    22    18    19   ar
    23    21    22   ar
    24    23    24   ar
    25    12    13    1
@<TRIPOS>MOLECULE
MolPort-016-617-167 65451904 CSSS00159537219 MCULE-6098239325 PubChem-50972509 ZINC000065451904 ZINC65451904
 24 25 0 0 0
SMALL
GASTEIGER

@<TRIPOS>ATOM
      1 C          10.8650   41.4566    8.0647 C.2     1  UNL1        0.2568
      2 O          10.5647   41.2742    6.8538 O.2     1  UNL1       -0.2693
      3 N          12.1836   41.0923    8.5257 N.am    1  UNL1       -0.2674
      4 C           8.4956   41.6833    9.0209 C.ar    1  UNL1        0.0613
      5 C           9.8400   42.0424    8.9612 C.ar    1  UNL1        0.0965
      6 C           8.4655   43.4516   10.5638 C.ar    1  UNL1        0.0369
      7 C           7.7378   42.4587    9.9151 C.ar    1  UNL1        0.0223
      8 S          10.0483   43.3420   10.0062 S.2     1  UNL1       -0.0807
      9 C           6.7508   39.4976    6.3299 C.3     1  UNL1        0.0949
     10 C           7.2523   40.7234    7.0031 C.2     1  UNL1        0.2266
     11 O           7.0533   41.8468    6.4699 O.2     1  UNL1       -0.2748
     12 N           7.9536   40.6038    8.2460 N.am    1  UNL1       -0.2834
     13 H           8.0756   39.6944    8.6028 H       1  UNL1        0.1549
     14 C          12.5004   40.9866    9.9452 C.3     1  UNL1        0.1205
     15 C          12.7238   39.5593   10.3238 C.2     1  UNL1       -0.0047
     16 C          13.7232   39.2374   11.1379 C.2     1  UNL1       -0.0031
     17 C          13.2308   40.7346    7.5698 C.3     1  UNL1        0.1205
     18 C          14.0570   41.9305    7.2005 C.ar    1  UNL1       -0.0063
     19 C          15.3175   42.1579    7.7870 C.ar    1  UNL1       -0.0242
     20 C          15.8873   41.2233    8.8000 C.3     1  UNL1        0.0308
     21 C          16.0647   43.2801    7.4145 C.ar    1  UNL1       -0.0045
     22 C          15.5696   44.1722    6.4600 C.ar    1  UNL1       -0.0003
     23 C          14.3243   43.9441    5.8703 C.ar    1  UNL1       -0.0003
     24 C          13.5720   42.8255    6.2378 C.ar    1  UNL1       -0.0029
@<TRIPOS>BOND
     1     9    10    1
     2    10    12   am
     3     5     8   ar
     4     5     1    1
     5     6     8   ar
     6     7     4   ar
     7     1     3   am
     8    14     3    1
     9    14    15    1
    10    17     3    1
    11    17    18    1
    12    19    21   ar
    13    20    19    1
    14    22    23   ar
    15    24    18   ar
    16    12     4    1
    17    10    11    2
    18     4     5   ar
    19     6     7   ar
    20     1     2    2
    21    15    16    2
    22    18    19   ar
    23    21    22   ar
    24    23    24   ar
    25    12    13    1
@<TRIPOS>MOLECULE
MolPort-016-617-167 65451904 CSSS00159537219 MCULE-6098239325 PubChem-50972509 ZINC000065451904 ZINC65451904
 24 25 0 0 0
SMALL
GASTEIGER

@<TRIPOS>ATOM
      1 C          10.8986   41.6688    8.1757 C.2     1  UNL1        0.2568
      2 O          10.5201   41.8262    6.9833 O.2     1  UNL1       -0.2693
      3 N          12.2347   41.1862    8.4324 N.am    1  UNL1       -0.2674
      4 C           8.6454   41.5056    9.3905 C.ar    1  UNL1        0.0613
      5 C           9.9443   41.9918    9.2631 C.ar    1  UNL1        0.0965
      6 C           8.6659   42.9659   11.2278 C.ar    1  UNL1        0.0369
      7 C           7.9418   42.0393   10.4838 C.ar    1  UNL1        0.0223
      8 S          10.1774   43.1017   10.5033 S.2     1  UNL1       -0.0807
      9 C           6.7496   39.6721    6.5433 C.3     1  UNL1        0.0949
     10 C           7.2328   40.8016    7.3787 C.2     1  UNL1        0.2266
     11 O           6.8753   41.9758    7.0971 O.2     1  UNL1       -0.2748
     12 N           8.0971   40.5333    8.4886 N.am    1  UNL1       -0.2834
     13 H           8.3380   39.5922    8.6481 H       1  UNL1        0.1549
     14 C          12.6361   40.6946    9.7452 C.3     1  UNL1        0.1205
     15 C          11.8529   39.4754   10.1063 C.2     1  UNL1       -0.0047
     16 C          12.0406   38.3435    9.4363 C.2     1  UNL1       -0.0031
     17 C          13.2125   41.0989    7.3486 C.3     1  UNL1        0.1205
     18 C          14.5723   41.5303    7.8112 C.ar    1  UNL1       -0.0063
     19 C          15.1813   42.6956    7.3056 C.ar    1  UNL1       -0.0242
     20 C          14.5046   43.5521    6.2893 C.3     1  UNL1        0.0308
     21 C          16.4479   43.0724    7.7640 C.ar    1  UNL1       -0.0045
     22 C          17.1084   42.3020    8.7244 C.ar    1  UNL1       -0.0003
     23 C          16.5029   41.1512    9.2340 C.ar    1  UNL1       -0.0003
     24 C          15.2380   40.7684    8.7804 C.ar    1  UNL1       -0.0029
@<TRIPOS>BOND
     1     9    10    1
     2    10    12   am
     3     5     8   ar
     4     5     1    1
     5     6     8   ar
     6     7     4   ar
     7     1     3   am
     8    14     3    1
     9    14    15    1
    10    17     3    1
    11    17    18    1
    12    19    21   ar
    13    20    19    1
    14    22    23   ar
    15    24    18   ar
    16    12     4    1
    17    10    11    2
    18     4     5   ar
    19     6     7   ar
    20     1     2    2
    21    15    16    2
    22    18    19   ar
    23    21    22   ar
    24    23    24   ar
    25    12    13    1
@<TRIPOS>MOLECULE
MolPort-016-617-167 65451904 CSSS00159537219 MCULE-6098239325 PubChem-50972509 ZINC000065451904 ZINC65451904
 24 25 0 0 0
SMALL
GASTEIGER

@<TRIPOS>ATOM
      1 C           8.3241   42.1958    6.6292 C.2     1  UNL1        0.2568
      2 O           7.7256   43.0159    5.8815 O.2     1  UNL1       -0.2693
      3 N           8.3576   42.4353    8.0524 N.am    1  UNL1       -0.2674
      4 C          10.2647   40.9550    5.5007 C.ar    1  UNL1        0.0613
      5 C           8.9673   41.0159    6.0034 C.ar    1  UNL1        0.0965
      6 C           9.5426   38.8049    4.8971 C.ar    1  UNL1        0.0369
      7 C          10.5847   39.7272    4.8963 C.ar    1  UNL1        0.0223
      8 S           8.2360   39.5433    5.6559 S.2     1  UNL1       -0.0807
      9 C          13.2371   43.2860    6.3918 C.3     1  UNL1        0.0949
     10 C          12.3963   42.0613    6.3789 C.2     1  UNL1        0.2266
     11 O          12.7623   41.0533    7.0391 O.2     1  UNL1       -0.2748
     12 N          11.1851   42.0501    5.6148 N.am    1  UNL1       -0.2834
     13 H          10.9627   42.8721    5.1207 H       1  UNL1        0.1549
     14 C           9.2709   41.7156    8.9324 C.3     1  UNL1        0.1205
     15 C          10.4271   42.5842    9.3053 C.2     1  UNL1       -0.0047
     16 C          10.4038   43.2669   10.4449 C.2     1  UNL1       -0.0031
     17 C           7.5235   43.4780    8.6487 C.3     1  UNL1        0.1205
     18 C           6.1865   42.9340    9.0556 C.ar    1  UNL1       -0.0063
     19 C           4.9891   43.5356    8.6212 C.ar    1  UNL1       -0.0242
     20 C           4.9949   44.7384    7.7392 C.3     1  UNL1        0.0308
     21 C           3.7591   42.9982    9.0144 C.ar    1  UNL1       -0.0045
     22 C           3.7129   41.8650    9.8305 C.ar    1  UNL1       -0.0003
     23 C           4.8986   41.2613   10.2551 C.ar    1  UNL1       -0.0003
     24 C           6.1310   41.7929    9.8667 C.ar    1  UNL1       -0.0029
@<TRIPOS>BOND
     1     9    10    1
     2    10    12   am
     3     5     8   ar
     4     5     1    1
     5     6     8   ar
     6     7     4   ar
     7     1     3   am
     8    14     3    1
     9    14    15    1
    10    17     3    1
    11    17    18    1
    12    19    21   ar
    13    20    19    1
    14    22    23   ar
    15    24    18   ar
    16    12     4    1
    17    10    11    2
    18     4     5   ar
    19     6     7   ar
    20     1     2    2
    21    15    16    2
    22    18    19   ar
    23    21    22   ar
    24    23    24   ar
    25    12    13    1
@<TRIPOS>MOLECULE
MolPort-016-617-167 65451904 CSSS00159537219 MCULE-6098239325 PubChem-50972509 ZINC000065451904 ZINC65451904
 24 25 0 0 0
SMALL
GASTEIGER

@<TRIPOS>ATOM
      1 C          10.5492   42.4491    9.4720 C.2     1  UNL1        0.2568
      2 O          11.1295   43.5653    9.5570 O.2     1  UNL1       -0.2693
      3 N          10.7509   41.6385    8.2947 N.am    1  UNL1       -0.2674
      4 C           8.3394   42.3459   10.7703 C.ar    1  UNL1        0.0613
      5 C           9.6826   42.0215   10.5961 C.ar    1  UNL1        0.0965
      6 C           8.6862   41.1615   12.7666 C.ar    1  UNL1        0.0369
      7 C           7.7868   41.8615   11.9683 C.ar    1  UNL1        0.0223
      8 S          10.1607   41.1605   11.9578 S.2     1  UNL1       -0.0807
      9 C           5.9696   43.4749    7.9116 C.3     1  UNL1        0.0949
     10 C           6.6519   42.5581    8.8608 C.2     1  UNL1        0.2266
     11 O           6.3883   41.3271    8.8287 O.2     1  UNL1       -0.2748
     12 N           7.5966   43.0922    9.7952 N.am    1  UNL1       -0.2834
     13 H           7.7511   44.0641    9.7660 H       1  UNL1        0.1549
     14 C           9.8928   40.5001    7.9881 C.3     1  UNL1        0.1205
     15 C           9.4356   40.5604    6.5677 C.2     1  UNL1       -0.0047
     16 C           8.2654   40.0333    6.2243 C.2     1  UNL1       -0.0031
     17 C          11.7838   41.9895    7.3208 C.3     1  UNL1        0.1205
     18 C          13.1520   41.6678    7.8441 C.ar    1  UNL1       -0.0063
     19 C          14.2983   42.3128    7.3397 C.ar    1  UNL1       -0.0242
     20 C          14.2054   43.3423    6.2646 C.3     1  UNL1        0.0308
     21 C          15.5587   41.9933    7.8552 C.ar    1  UNL1       -0.0045
     22 C          15.6849   41.0425    8.8712 C.ar    1  UNL1       -0.0003
     23 C          14.5490   40.4083    9.3794 C.ar    1  UNL1       -0.0003
     24 C          13.2868   40.7220    8.8689 C.ar    1  UNL1       -0.0029
@<TRIPOS>BOND
     1     9    10    1
     2    10    12   am
     3     5     8   ar
     4     5     1    1
     5     6     8   ar
     6     7     4   ar
     7     1     3   am
     8    14     3    1
     9    14    15    1
    10    17     3    1
    11    17    18    1
    12    19    21   ar
    13    20    19    1
    14    22    23   ar
    15    24    18   ar
    16    12     4    1
    17    10    11    2
    18     4     5   ar
    19     6     7   ar
    20     1     2    2
    21    15    16    2
    22    18    19   ar
    23    21    22   ar
    24    23    24   ar
    25    12    13    1
@<TRIPOS>MOLECULE
MolPort-016-617-167 65451904 CSSS00159537219 MCULE-6098239325 PubChem-50972509 ZINC000065451904 ZINC65451904
 24 25 0 0 0
SMALL
GASTEIGER

@<TRIPOS>ATOM
      1 C          10.5806   41.6454    8.3427 C.2     1  UNL1        0.2568
      2 O          11.3686   42.4058    8.9678 O.2     1  UNL1       -0.2693
      3 N          11.1219   40.5570    7.5640 N.am    1  UNL1       -0.2674
      4 C           8.3373   41.7653    9.5807 C.ar    1  UNL1        0.0613
      5 C           9.1252   41.9092    8.4413 C.ar    1  UNL1        0.0965
      6 C           6.6554   42.3461    8.0501 C.ar    1  UNL1        0.0369
      7 C           6.9714   42.0161    9.3645 C.ar    1  UNL1        0.0223
      8 S           8.0938   42.3185    7.1792 S.2     1  UNL1       -0.0807
      9 C           8.9273   41.0401   13.3475 C.3     1  UNL1        0.0949
     10 C           8.2023   41.4372   12.1130 C.2     1  UNL1        0.2266
     11 O           6.9960   41.7899   12.1912 O.2     1  UNL1       -0.2748
     12 N           8.8896   41.4107   10.8569 N.am    1  UNL1       -0.2834
     13 H           9.8306   41.1216   10.8701 H       1  UNL1        0.1549
     14 C          10.3163   39.8360    6.5855 C.3     1  UNL1        0.1205
     15 C          11.0842   39.6437    5.3192 C.2     1  UNL1       -0.0047
     16 C          10.6657   40.2164    4.1959 C.2     1  UNL1       -0.0031
     17 C          12.5343   40.1953    7.6769 C.3     1  UNL1        0.1205
     18 C          13.4189   41.3432    7.2914 C.ar    1  UNL1       -0.0063
     19 C          14.6492   41.5683    7.9396 C.ar    1  UNL1       -0.0242
     20 C          15.1279   40.6786    9.0367 C.3     1  UNL1        0.0308
     21 C          15.4529   42.6449    7.5504 C.ar    1  UNL1       -0.0045
     22 C          15.0439   43.4935    6.5185 C.ar    1  UNL1       -0.0003
     23 C          13.8289   43.2671    5.8680 C.ar    1  UNL1       -0.0003
     24 C          13.0206   42.1940    6.2519 C.ar    1  UNL1       -0.0029
@<TRIPOS>BOND
     1     9    10    1
     2    10    12   am
     3     5     8   ar
     4     5     1    1
     5     6     8   ar
     6     7     4   ar
     7     1     3   am
     8    14     3    1
     9    14    15    1
    10    17     3    1
    11    17    18    1
    12    19    21   ar
    13    20    19    1
    14    22    23   ar
    15    24    18   ar
    16    12     4    1
    17    10    11    2
    18     4     5   ar
    19     6     7   ar
    20     1     2    2
    21    15    16    2
    22    18    19   ar
    23    21    22   ar
    24    23    24   ar
    25    12    13    1
@<TRIPOS>MOLECULE
MolPort-016-617-167 65451904 CSSS00159537219 MCULE-6098239325 PubChem-50972509 ZINC000065451904 ZINC65451904
 24 25 0 0 0
SMALL
GASTEIGER

@<TRIPOS>ATOM
      1 C          11.2309   42.5330    8.8268 C.2     1  UNL1        0.2568
      2 O          11.8838   43.6108    8.8710 O.2     1  UNL1       -0.2693
      3 N          11.3417   41.6900    7.6602 N.am    1  UNL1       -0.2674
      4 C          10.6391   41.1983   10.9358 C.ar    1  UNL1        0.0613
      5 C          10.3761   42.1826    9.9861 C.ar    1  UNL1        0.0965
      6 C           8.5225   41.8734   11.6926 C.ar    1  UNL1        0.0369
      7 C           9.6158   41.0344   11.8851 C.ar    1  UNL1        0.0223
      8 S           8.8558   42.8082   10.3350 S.2     1  UNL1       -0.0807
      9 C          13.3538   38.4466   10.5876 C.3     1  UNL1        0.0949
     10 C          12.0141   39.0845   10.5121 C.2     1  UNL1        0.2266
     11 O          11.0379   38.4218   10.0721 O.2     1  UNL1       -0.2748
     12 N          11.8587   40.4420   10.9409 N.am    1  UNL1       -0.2834
     13 H          12.6654   40.9001   11.2706 H       1  UNL1        0.1549
     14 C          10.4030   40.6039    7.4039 C.3     1  UNL1        0.1205
     15 C           9.4835   40.9643    6.2837 C.2     1  UNL1       -0.0047
     16 C           8.5501   41.8925    6.4638 C.2     1  UNL1       -0.0031
     17 C          12.3625   41.9560    6.6474 C.3     1  UNL1        0.1205
     18 C          13.7364   41.9449    7.2485 C.ar    1  UNL1       -0.0063
     19 C          14.7011   42.9053    6.8859 C.ar    1  UNL1       -0.0242
     20 C          14.4024   43.9745    5.8899 C.3     1  UNL1        0.0308
     21 C          15.9710   42.8696    7.4712 C.ar    1  UNL1       -0.0045
     22 C          16.2845   41.8903    8.4171 C.ar    1  UNL1       -0.0003
     23 C          15.3269   40.9426    8.7851 C.ar    1  UNL1       -0.0003
     24 C          14.0564   40.9718    8.2043 C.ar    1  UNL1       -0.0029
@<TRIPOS>BOND
     1     9    10    1
     2    10    12   am
     3     5     8   ar
     4     5     1    1
     5     6     8   ar
     6     7     4   ar
     7     1     3   am
     8    14     3    1
     9    14    15    1
    10    17     3    1
    11    17    18    1
    12    19    21   ar
    13    20    19    1
    14    22    23   ar
    15    24    18   ar
    16    12     4    1
    17    10    11    2
    18     4     5   ar
    19     6     7   ar
    20     1     2    2
    21    15    16    2
    22    18    19   ar
    23    21    22   ar
    24    23    24   ar
    25    12    13    1
@<TRIPOS>MOLECULE
MolPort-016-617-167 65451904 CSSS00159537219 MCULE-6098239325 PubChem-50972509 ZINC000065451904 ZINC65451904
 24 25 0 0 0
SMALL
GASTEIGER

@<TRIPOS>ATOM
      1 C           8.8427   41.6594    7.1288 C.2     1  UNL1        0.2568
      2 O           8.2045   41.7423    6.0444 O.2     1  UNL1       -0.2693
      3 N           8.1214   41.4005    8.3522 N.am    1  UNL1       -0.2674
      4 C          11.1616   41.4591    6.0509 C.ar    1  UNL1        0.0613
      5 C          10.3145   41.8321    7.0916 C.ar    1  UNL1        0.0965
      6 C          12.7768   42.2093    7.5796 C.ar    1  UNL1        0.0369
      7 C          12.5239   41.6766    6.3191 C.ar    1  UNL1        0.0223
      8 S          11.2881   42.3994    8.3384 S.2     1  UNL1       -0.0807
      9 C           9.7044   39.1926    3.2576 C.3     1  UNL1        0.0949
     10 C          10.1750   39.5920    4.6090 C.2     1  UNL1        0.2266
     11 O          10.1310   38.7569    5.5506 O.2     1  UNL1       -0.2748
     12 N          10.6695   40.9201    4.8153 N.am    1  UNL1       -0.2834
     13 H          10.6720   41.5205    4.0352 H       1  UNL1        0.1549
     14 C           8.7338   41.5922    9.6616 C.3     1  UNL1        0.1205
     15 C           7.7131   42.0478   10.6519 C.2     1  UNL1       -0.0047
     16 C           7.6395   41.4663   11.8442 C.2     1  UNL1       -0.0031
     17 C           6.7121   41.0120    8.3141 C.3     1  UNL1        0.1205
     18 C           5.8186   42.2163    8.3347 C.ar    1  UNL1       -0.0063
     19 C           4.6124   42.2196    9.0625 C.ar    1  UNL1       -0.0242
     20 C           4.1687   41.0292    9.8438 C.3     1  UNL1        0.0308
     21 C           3.8059   43.3624    9.0653 C.ar    1  UNL1       -0.0045
     22 C           4.1939   44.5013    8.3550 C.ar    1  UNL1       -0.0003
     23 C           5.3937   44.5037    7.6401 C.ar    1  UNL1       -0.0003
     24 C           6.2042   43.3656    7.6323 C.ar    1  UNL1       -0.0029
@<TRIPOS>BOND
     1     9    10    1
     2    10    12   am
     3     5     8   ar
     4     5     1    1
     5     6     8   ar
     6     7     4   ar
     7     1     3   am
     8    14     3    1
     9    14    15    1
    10    17     3    1
    11    17    18    1
    12    19    21   ar
    13    20    19    1
    14    22    23   ar
    15    24    18   ar
    16    12     4    1
    17    10    11    2
    18     4     5   ar
    19     6     7   ar
    20     1     2    2
    21    15    16    2
    22    18    19   ar
    23    21    22   ar
    24    23    24   ar
    25    12    13    1
