@<TRIPOS>MOLECULE
MolPort-002-605-953 2394610 CSSS00160675838 LN00665856 MCULE-9368356693 PubChem-1993559 ZINC000002394610 ZINC02394610
 27 30 0 0 0
SMALL
GASTEIGER

@<TRIPOS>ATOM
      1 C          11.3576   41.0734    6.5156 C.ar    1  UNL1        0.1572
      2 C          11.5200   40.0825    7.4717 C.ar    1  UNL1        0.0689
      3 C          12.5699   39.6936    8.2976 C.ar    1  UNL1        0.0074
      4 C          12.3554   38.5700    9.1146 C.ar    1  UNL1        0.0176
      5 C          13.3570   38.1274    9.9811 C.ar    1  UNL1       -0.0028
      6 C          13.1376   37.0073   10.7890 C.ar    1  UNL1       -0.0218
      7 C          14.2051   36.5396   11.7107 C.3     1  UNL1        0.0310
      8 C          11.9173   36.3248   10.7325 C.ar    1  UNL1       -0.0027
      9 C          10.9056   36.7552    9.8684 C.ar    1  UNL1        0.0188
     10 C          11.1088   37.8733    9.0562 C.ar    1  UNL1        0.0829
     11 C          10.3493   39.3827    7.4351 C.ar    1  UNL1        0.1621
     12 N           9.5329   39.9022    6.5060 N.ar    1  UNL1       -0.2329
     13 N          10.1423   40.9336    5.9306 N.ar    1  UNL1       -0.1527
     14 N          10.1232   38.2886    8.2051 N.ar    1  UNL1       -0.2268
     15 C          13.0246   42.9589    6.9401 C.2     1  UNL1        0.2853
     16 N          12.3179   42.0479    6.0905 N.am    1  UNL1       -0.2618
     17 O          12.6320   43.1770    8.1169 O.2     1  UNL1       -0.2664
     18 H          12.5095   42.0957    5.1260 H       1  UNL1        0.1567
     19 C          14.1843   43.6901    6.4204 C.ar    1  UNL1        0.1988
     20 C          15.5046   43.3678    6.6534 C.ar    1  UNL1        0.0455
     21 C          16.2288   44.3290    5.9700 C.ar    1  UNL1        0.0440
     22 C          15.3053   45.1682    5.3698 C.ar    1  UNL1        0.1798
     23 O          14.0965   44.7535    5.6626 O.2     1  UNL1       -0.4458
     24 C           8.2006   39.4316    6.1606 C.3     1  UNL1        0.1292
     25 C           7.1735   40.5118    6.4564 C.3     1  UNL1        0.0264
     26 C           5.7901   41.2315    8.4011 C.3     1  UNL1        0.0001
     27 C           7.1858   40.8640    7.9329 C.3     1  UNL1        0.0021
@<TRIPOS>BOND
     1    26    27    1
     2    27    25    1
     3    25    24    1
     4    24    12    1
     5     1    16    1
     6     1     2   ar
     7    15    19    1
     8    19    23   ar
     9    20    21   ar
    10    22    23   ar
    11     3     4   ar
    12     5     6   ar
    13     7     6    1
    14     8     9   ar
    15    10    14   ar
    16    10     4   ar
    17    11    12   ar
    18    11     2   ar
    19    12    13   ar
    20    16    15   am
    21     1    13   ar
    22    15    17    2
    23    19    20   ar
    24    21    22   ar
    25     2     3   ar
    26     4     5   ar
    27     6     8   ar
    28     9    10   ar
    29    11    14   ar
    30    16    18    1
@<TRIPOS>MOLECULE
MolPort-002-605-953 2394610 CSSS00160675838 LN00665856 MCULE-9368356693 PubChem-1993559 ZINC000002394610 ZINC02394610
 27 30 0 0 0
SMALL
GASTEIGER

@<TRIPOS>ATOM
      1 C          12.2436   41.4135    6.3643 C.ar    1  UNL1        0.1572
      2 C          12.1299   40.3903    7.2930 C.ar    1  UNL1        0.0689
      3 C          13.0143   39.7777    8.1752 C.ar    1  UNL1        0.0074
      4 C          12.5161   38.7047    8.9344 C.ar    1  UNL1        0.0176
      5 C          13.3394   38.0485    9.8517 C.ar    1  UNL1       -0.0028
      6 C          12.8378   36.9802   10.6017 C.ar    1  UNL1       -0.0218
      7 C          13.7162   36.2847   11.5777 C.3     1  UNL1        0.0310
      8 C          11.5125   36.5628   10.4362 C.ar    1  UNL1       -0.0027
      9 C          10.6766   37.2090    9.5201 C.ar    1  UNL1        0.0188
     10 C          11.1623   38.2789    8.7647 C.ar    1  UNL1        0.0829
     11 C          10.8479   39.9456    7.1502 C.ar    1  UNL1        0.1621
     12 N          10.2257   40.6404    6.1861 N.ar    1  UNL1       -0.2329
     13 N          11.0727   41.5375    5.6917 N.ar    1  UNL1       -0.1527
     14 N          10.3479   38.9047    7.8628 N.ar    1  UNL1       -0.2268
     15 C          14.0904   43.0857    6.9186 C.2     1  UNL1        0.2853
     16 N          13.4104   42.1799    6.0420 N.am    1  UNL1       -0.2618
     17 O          13.5324   43.5081    7.9658 O.2     1  UNL1       -0.2664
     18 H          13.7784   42.0743    5.1350 H       1  UNL1        0.1567
     19 C          15.4282   43.5730    6.5684 C.ar    1  UNL1        0.1988
     20 C          16.4080   43.9390    7.4670 C.ar    1  UNL1        0.0455
     21 C          17.4800   44.3268    6.6821 C.ar    1  UNL1        0.0440
     22 C          17.0827   44.1720    5.3648 C.ar    1  UNL1        0.1798
     23 O          15.8522   43.7203    5.3391 O.2     1  UNL1       -0.4458
     24 C           8.8556   40.4595    5.7325 C.3     1  UNL1        0.1292
     25 C           8.7349   39.1679    4.9410 C.3     1  UNL1        0.0264
     26 C           9.6851   37.8558    3.0465 C.3     1  UNL1        0.0001
     27 C           9.6120   39.2216    3.7032 C.3     1  UNL1        0.0021
@<TRIPOS>BOND
     1    26    27    1
     2    27    25    1
     3    25    24    1
     4    24    12    1
     5     1    16    1
     6     1     2   ar
     7    15    19    1
     8    19    23   ar
     9    20    21   ar
    10    22    23   ar
    11     3     4   ar
    12     5     6   ar
    13     7     6    1
    14     8     9   ar
    15    10    14   ar
    16    10     4   ar
    17    11    12   ar
    18    11     2   ar
    19    12    13   ar
    20    16    15   am
    21     1    13   ar
    22    15    17    2
    23    19    20   ar
    24    21    22   ar
    25     2     3   ar
    26     4     5   ar
    27     6     8   ar
    28     9    10   ar
    29    11    14   ar
    30    16    18    1
@<TRIPOS>MOLECULE
MolPort-002-605-953 2394610 CSSS00160675838 LN00665856 MCULE-9368356693 PubChem-1993559 ZINC000002394610 ZINC02394610
 27 30 0 0 0
SMALL
GASTEIGER

@<TRIPOS>ATOM
      1 C          11.9179   41.9819    6.8038 C.ar    1  UNL1        0.1572
      2 C          12.9048   41.4327    7.6080 C.ar    1  UNL1        0.0689
      3 C          12.8993   40.5622    8.6933 C.ar    1  UNL1        0.0074
      4 C          14.1403   40.2805    9.2905 C.ar    1  UNL1        0.0176
      5 C          14.2176   39.4049   10.3754 C.ar    1  UNL1       -0.0028
      6 C          15.4551   39.1314   10.9662 C.ar    1  UNL1       -0.0218
      7 C          15.5340   38.1983   12.1199 C.3     1  UNL1        0.0310
      8 C          16.6193   39.7334   10.4760 C.ar    1  UNL1       -0.0027
      9 C          16.5575   40.6138    9.3914 C.ar    1  UNL1        0.0188
     10 C          15.3290   40.8959    8.7893 C.ar    1  UNL1        0.0829
     11 C          14.0597   42.0103    7.1675 C.ar    1  UNL1        0.1621
     12 N          13.7930   42.8682    6.1713 N.ar    1  UNL1       -0.2329
     13 N          12.4834   42.8653    5.9444 N.ar    1  UNL1       -0.1527
     14 N          15.2674   41.7634    7.7348 N.ar    1  UNL1       -0.2268
     15 C           9.6922   41.1024    5.9169 C.2     1  UNL1        0.2853
     16 N          10.5027   41.7753    6.8872 N.am    1  UNL1       -0.2618
     17 O          10.1238   40.8930    4.7523 O.2     1  UNL1       -0.2664
     18 H          10.0455   42.1282    7.6845 H       1  UNL1        0.1567
     19 C           8.3243   40.7018    6.2612 C.ar    1  UNL1        0.1988
     20 C           7.6014   41.1656    7.3399 C.ar    1  UNL1        0.0455
     21 C           6.3837   40.5132    7.2558 C.ar    1  UNL1        0.0440
     22 C           6.4468   39.6997    6.1371 C.ar    1  UNL1        0.1798
     23 O           7.6209   39.8407    5.5711 O.2     1  UNL1       -0.4458
     24 C          14.7555   43.6831    5.4467 C.3     1  UNL1        0.1292
     25 C          15.6215   44.4598    6.4244 C.3     1  UNL1        0.0264
     26 C          17.8694   44.0475    7.4198 C.3     1  UNL1        0.0001
     27 C          17.0923   44.2275    6.1291 C.3     1  UNL1        0.0021
@<TRIPOS>BOND
     1    26    27    1
     2    27    25    1
     3    25    24    1
     4    24    12    1
     5     1    16    1
     6     1     2   ar
     7    15    19    1
     8    19    23   ar
     9    20    21   ar
    10    22    23   ar
    11     3     4   ar
    12     5     6   ar
    13     7     6    1
    14     8     9   ar
    15    10    14   ar
    16    10     4   ar
    17    11    12   ar
    18    11     2   ar
    19    12    13   ar
    20    16    15   am
    21     1    13   ar
    22    15    17    2
    23    19    20   ar
    24    21    22   ar
    25     2     3   ar
    26     4     5   ar
    27     6     8   ar
    28     9    10   ar
    29    11    14   ar
    30    16    18    1
@<TRIPOS>MOLECULE
MolPort-002-605-953 2394610 CSSS00160675838 LN00665856 MCULE-9368356693 PubChem-1993559 ZINC000002394610 ZINC02394610
 27 30 0 0 0
SMALL
GASTEIGER

@<TRIPOS>ATOM
      1 C          11.9394   41.9519    7.4610 C.ar    1  UNL1        0.1572
      2 C          11.0980   41.8221    8.5554 C.ar    1  UNL1        0.0689
      3 C          11.3008   41.7037    9.9267 C.ar    1  UNL1        0.0074
      4 C          10.1584   41.5300   10.7271 C.ar    1  UNL1        0.0176
      5 C          10.2800   41.4179   12.1136 C.ar    1  UNL1       -0.0028
      6 C           9.1394   41.2426   12.9034 C.ar    1  UNL1       -0.0218
      7 C           9.2721   41.1247   14.3786 C.3     1  UNL1        0.0310
      8 C           7.8738   41.1770   12.3101 C.ar    1  UNL1       -0.0027
      9 C           7.7364   41.2858   10.9228 C.ar    1  UNL1        0.0188
     10 C           8.8661   41.4629   10.1204 C.ar    1  UNL1        0.0829
     11 C           9.8488   41.7396    8.0130 C.ar    1  UNL1        0.1621
     12 N           9.9244   41.7981    6.6750 N.ar    1  UNL1       -0.2329
     13 N          11.2006   41.9205    6.3243 N.ar    1  UNL1       -0.1527
     14 N           8.7326   41.5604    8.7635 N.ar    1  UNL1       -0.2268
     15 C          14.1711   43.0943    6.9829 C.2     1  UNL1        0.2853
     16 N          13.3711   42.0049    7.4566 N.am    1  UNL1       -0.2618
     17 O          13.6715   43.9873    6.2485 O.2     1  UNL1       -0.2664
     18 H          13.8487   41.2207    7.8118 H       1  UNL1        0.1567
     19 C          15.6002   43.1443    7.3070 C.ar    1  UNL1        0.1988
     20 C          16.2879   42.2028    8.0434 C.ar    1  UNL1        0.0455
     21 C          17.5898   42.6703    8.0865 C.ar    1  UNL1        0.0440
     22 C          17.6073   43.8594    7.3772 C.ar    1  UNL1        0.1798
     23 O          16.4008   44.1076    6.9282 O.2     1  UNL1       -0.4458
     24 C           8.8126   41.7344    5.7393 C.3     1  UNL1        0.1292
     25 C           7.4984   41.9259    6.4777 C.3     1  UNL1        0.0264
     26 C           6.4648   43.9832    7.4332 C.3     1  UNL1        0.0001
     27 C           6.9057   43.2867    6.1594 C.3     1  UNL1        0.0021
@<TRIPOS>BOND
     1    26    27    1
     2    27    25    1
     3    25    24    1
     4    24    12    1
     5     1    16    1
     6     1     2   ar
     7    15    19    1
     8    19    23   ar
     9    20    21   ar
    10    22    23   ar
    11     3     4   ar
    12     5     6   ar
    13     7     6    1
    14     8     9   ar
    15    10    14   ar
    16    10     4   ar
    17    11    12   ar
    18    11     2   ar
    19    12    13   ar
    20    16    15   am
    21     1    13   ar
    22    15    17    2
    23    19    20   ar
    24    21    22   ar
    25     2     3   ar
    26     4     5   ar
    27     6     8   ar
    28     9    10   ar
    29    11    14   ar
    30    16    18    1
@<TRIPOS>MOLECULE
MolPort-002-605-953 2394610 CSSS00160675838 LN00665856 MCULE-9368356693 PubChem-1993559 ZINC000002394610 ZINC02394610
 27 30 0 0 0
SMALL
GASTEIGER

@<TRIPOS>ATOM
      1 C          13.5164   40.4096    8.6621 C.ar    1  UNL1        0.1572
      2 C          12.2676   40.9772    8.8637 C.ar    1  UNL1        0.0689
      3 C          11.7898   42.2834    8.9001 C.ar    1  UNL1        0.0074
      4 C          10.4268   42.4552    9.1979 C.ar    1  UNL1        0.0176
      5 C           9.8705   43.7353    9.2386 C.ar    1  UNL1       -0.0028
      6 C           8.5144   43.8988    9.5382 C.ar    1  UNL1       -0.0218
      7 C           7.9252   45.2623    9.5797 C.3     1  UNL1        0.0310
      8 C           7.7102   42.7840    9.7996 C.ar    1  UNL1       -0.0027
      9 C           8.2536   41.4960    9.7643 C.ar    1  UNL1        0.0188
     10 C           9.6061   41.3160    9.4650 C.ar    1  UNL1        0.0829
     11 C          11.4546   39.9163    9.1377 C.ar    1  UNL1        0.1621
     12 N          12.1641   38.7780    9.1211 N.ar    1  UNL1       -0.2329
     13 N          13.4300   39.0678    8.8383 N.ar    1  UNL1       -0.1527
     14 N          10.1392   40.0576    9.4393 N.ar    1  UNL1       -0.2268
     15 C          14.9883   42.0727    7.4045 C.2     1  UNL1        0.2853
     16 N          14.7563   41.0829    8.4133 N.am    1  UNL1       -0.2618
     17 O          14.1815   42.2178    6.4482 O.2     1  UNL1       -0.2664
     18 H          15.5185   40.8434    8.9885 H       1  UNL1        0.1567
     19 C          16.2053   42.8893    7.4506 C.ar    1  UNL1        0.1988
     20 C          17.0543   43.0013    8.5314 C.ar    1  UNL1        0.0455
     21 C          18.0476   43.8689    8.1118 C.ar    1  UNL1        0.0440
     22 C          17.7381   44.2254    6.8101 C.ar    1  UNL1        0.1798
     23 O          16.6316   43.6201    6.4522 O.2     1  UNL1       -0.4458
     24 C          11.6596   37.4371    9.3728 C.3     1  UNL1        0.1292
     25 C          12.8137   36.4917    9.6613 C.3     1  UNL1        0.0264
     26 C          14.2812   37.1052   11.5806 C.3     1  UNL1        0.0001
     27 C          13.0287   36.3602   11.1582 C.3     1  UNL1        0.0021
@<TRIPOS>BOND
     1    26    27    1
     2    27    25    1
     3    25    24    1
     4    24    12    1
     5     1    16    1
     6     1     2   ar
     7    15    19    1
     8    19    23   ar
     9    20    21   ar
    10    22    23   ar
    11     3     4   ar
    12     5     6   ar
    13     7     6    1
    14     8     9   ar
    15    10    14   ar
    16    10     4   ar
    17    11    12   ar
    18    11     2   ar
    19    12    13   ar
    20    16    15   am
    21     1    13   ar
    22    15    17    2
    23    19    20   ar
    24    21    22   ar
    25     2     3   ar
    26     4     5   ar
    27     6     8   ar
    28     9    10   ar
    29    11    14   ar
    30    16    18    1
@<TRIPOS>MOLECULE
MolPort-002-605-953 2394610 CSSS00160675838 LN00665856 MCULE-9368356693 PubChem-1993559 ZINC000002394610 ZINC02394610
 27 30 0 0 0
SMALL
GASTEIGER

@<TRIPOS>ATOM
      1 C          11.7470   41.8246    7.2384 C.ar    1  UNL1        0.1572
      2 C          12.8130   41.2886    7.9446 C.ar    1  UNL1        0.0689
      3 C          12.9221   40.4214    9.0270 C.ar    1  UNL1        0.0074
      4 C          14.2180   40.1550    9.5020 C.ar    1  UNL1        0.0176
      5 C          14.4094   39.2835   10.5761 C.ar    1  UNL1       -0.0028
      6 C          15.7012   39.0253   11.0451 C.ar    1  UNL1       -0.0218
      7 C          15.9015   38.0966   12.1876 C.3     1  UNL1        0.0310
      8 C          16.8059   39.6384   10.4435 C.ar    1  UNL1       -0.0027
      9 C          16.6297   40.5149    9.3682 C.ar    1  UNL1        0.0188
     10 C          15.3458   40.7818    8.8871 C.ar    1  UNL1        0.0829
     11 C          13.9135   41.8774    7.3934 C.ar    1  UNL1        0.1621
     12 N          13.5422   42.7294    6.4260 N.ar    1  UNL1       -0.2329
     13 N          12.2170   42.7116    6.3267 N.ar    1  UNL1       -0.1527
     14 N          15.1729   41.6454    7.8419 N.ar    1  UNL1       -0.2268
     15 C           9.5298   42.2832    8.4166 C.2     1  UNL1        0.2853
     16 N          10.3488   41.6029    7.4586 N.am    1  UNL1       -0.2618
     17 O          10.0504   42.9353    9.3601 O.2     1  UNL1       -0.2664
     18 H           9.9109   40.9205    6.9003 H       1  UNL1        0.1567
     19 C           8.0698   42.1755    8.3349 C.ar    1  UNL1        0.1988
     20 C           7.3664   41.0248    8.0475 C.ar    1  UNL1        0.0455
     21 C           6.0365   41.4064    8.0802 C.ar    1  UNL1        0.0440
     22 C           6.0195   42.7573    8.3835 C.ar    1  UNL1        0.1798
     23 O           7.2524   43.1791    8.5278 O.2     1  UNL1       -0.4458
     24 C          14.4212   43.5526    5.6102 C.3     1  UNL1        0.1292
     25 C          15.3721   44.3379    6.4980 C.3     1  UNL1        0.0264
     26 C          17.7264   44.0381    7.2600 C.3     1  UNL1        0.0001
     27 C          16.8082   44.1238    6.0552 C.3     1  UNL1        0.0021
@<TRIPOS>BOND
     1    26    27    1
     2    27    25    1
     3    25    24    1
     4    24    12    1
     5     1    16    1
     6     1     2   ar
     7    15    19    1
     8    19    23   ar
     9    20    21   ar
    10    22    23   ar
    11     3     4   ar
    12     5     6   ar
    13     7     6    1
    14     8     9   ar
    15    10    14   ar
    16    10     4   ar
    17    11    12   ar
    18    11     2   ar
    19    12    13   ar
    20    16    15   am
    21     1    13   ar
    22    15    17    2
    23    19    20   ar
    24    21    22   ar
    25     2     3   ar
    26     4     5   ar
    27     6     8   ar
    28     9    10   ar
    29    11    14   ar
    30    16    18    1
@<TRIPOS>MOLECULE
MolPort-002-605-953 2394610 CSSS00160675838 LN00665856 MCULE-9368356693 PubChem-1993559 ZINC000002394610 ZINC02394610
 27 30 0 0 0
SMALL
GASTEIGER

@<TRIPOS>ATOM
      1 C          13.1477   41.6684    7.9626 C.ar    1  UNL1        0.1572
      2 C          12.8104   40.4314    8.4903 C.ar    1  UNL1        0.0689
      3 C          13.4976   39.2363    8.6777 C.ar    1  UNL1        0.0074
      4 C          12.7684   38.1587    9.2098 C.ar    1  UNL1        0.0176
      5 C          13.3925   36.9310    9.4400 C.ar    1  UNL1       -0.0028
      6 C          12.6602   35.8625    9.9670 C.ar    1  UNL1       -0.0218
      7 C          13.3276   34.5577   10.2118 C.3     1  UNL1        0.0310
      8 C          11.3016   36.0169   10.2641 C.ar    1  UNL1       -0.0027
      9 C          10.6625   37.2398   10.0373 C.ar    1  UNL1        0.0188
     10 C          11.3806   38.3171    9.5129 C.ar    1  UNL1        0.0829
     11 C          11.4814   40.5387    8.7799 C.ar    1  UNL1        0.1621
     12 N          11.0334   41.7555    8.4358 N.ar    1  UNL1       -0.2329
     13 N          12.0431   42.4542    7.9270 N.ar    1  UNL1       -0.1527
     14 N          10.7538   39.5098    9.2828 N.ar    1  UNL1       -0.2268
     15 C          14.6916   43.3360    6.8010 C.2     1  UNL1        0.2853
     16 N          14.4107   42.0775    7.4242 N.am    1  UNL1       -0.2618
     17 O          13.7560   44.0818    6.4074 O.2     1  UNL1       -0.2664
     18 H          15.1536   41.4346    7.4885 H       1  UNL1        0.1567
     19 C          16.0816   43.7388    6.5654 C.ar    1  UNL1        0.1988
     20 C          17.0275   43.9621    7.5436 C.ar    1  UNL1        0.0455
     21 C          18.1729   44.3175    6.8527 C.ar    1  UNL1        0.0440
     22 C          17.8489   44.2871    5.5068 C.ar    1  UNL1        0.1798
     23 O          16.5921   43.9375    5.3769 O.2     1  UNL1       -0.4458
     24 C           9.6738   42.2521    8.5787 C.3     1  UNL1        0.1292
     25 C           8.8380   41.8348    7.3802 C.3     1  UNL1        0.0264
     26 C           7.0233   43.4909    6.9583 C.3     1  UNL1        0.0001
     27 C           7.3754   42.1681    7.6129 C.3     1  UNL1        0.0021
@<TRIPOS>BOND
     1    26    27    1
     2    27    25    1
     3    25    24    1
     4    24    12    1
     5     1    16    1
     6     1     2   ar
     7    15    19    1
     8    19    23   ar
     9    20    21   ar
    10    22    23   ar
    11     3     4   ar
    12     5     6   ar
    13     7     6    1
    14     8     9   ar
    15    10    14   ar
    16    10     4   ar
    17    11    12   ar
    18    11     2   ar
    19    12    13   ar
    20    16    15   am
    21     1    13   ar
    22    15    17    2
    23    19    20   ar
    24    21    22   ar
    25     2     3   ar
    26     4     5   ar
    27     6     8   ar
    28     9    10   ar
    29    11    14   ar
    30    16    18    1
@<TRIPOS>MOLECULE
MolPort-002-605-953 2394610 CSSS00160675838 LN00665856 MCULE-9368356693 PubChem-1993559 ZINC000002394610 ZINC02394610
 27 30 0 0 0
SMALL
GASTEIGER

@<TRIPOS>ATOM
      1 C          12.2602   41.7501    7.2957 C.ar    1  UNL1        0.1572
      2 C          11.3676   41.6653    8.3532 C.ar    1  UNL1        0.0689
      3 C          11.5015   41.6582    9.7380 C.ar    1  UNL1        0.0074
      4 C          10.3259   41.4946   10.4910 C.ar    1  UNL1        0.0176
      5 C          10.3777   41.4913   11.8864 C.ar    1  UNL1       -0.0028
      6 C           9.2046   41.3254   12.6291 C.ar    1  UNL1       -0.0218
      7 C           9.2631   41.3234   14.1139 C.3     1  UNL1        0.0310
      8 C           7.9760   41.1605   11.9799 C.ar    1  UNL1       -0.0027
      9 C           7.9086   41.1597   10.5832 C.ar    1  UNL1        0.0188
     10 C           9.0714   41.3260    9.8272 C.ar    1  UNL1        0.0829
     11 C          10.1533   41.4880    7.7568 C.ar    1  UNL1        0.1621
     12 N          10.2978   41.4502    6.4237 N.ar    1  UNL1       -0.2329
     13 N          11.5849   41.6020    6.1292 N.ar    1  UNL1       -0.1527
     14 N           9.0067   41.3164    8.4619 N.ar    1  UNL1       -0.2268
     15 C          14.4515   43.0332    7.0390 C.2     1  UNL1        0.2853
     16 N          13.6868   41.8653    7.3591 N.am    1  UNL1       -0.2618
     17 O          13.9385   43.9779    6.3826 O.2     1  UNL1       -0.2664
     18 H          14.1873   41.0687    7.6493 H       1  UNL1        0.1567
     19 C          15.8631   43.1097    7.4283 C.ar    1  UNL1        0.1988
     20 C          16.7077   44.1697    7.1741 C.ar    1  UNL1        0.0455
     21 C          17.9221   43.7925    7.7205 C.ar    1  UNL1        0.0440
     22 C          17.7363   42.5342    8.2677 C.ar    1  UNL1        0.1798
     23 O          16.4945   42.1617    8.0726 O.2     1  UNL1       -0.4458
     24 C           9.2409   41.2685    5.4410 C.3     1  UNL1        0.1292
     25 C           9.1720   39.8120    5.0131 C.3     1  UNL1        0.0264
     26 C           9.6473   38.2188    3.1559 C.3     1  UNL1        0.0001
     27 C           9.9088   39.6103    3.7013 C.3     1  UNL1        0.0021
@<TRIPOS>BOND
     1    26    27    1
     2    27    25    1
     3    25    24    1
     4    24    12    1
     5     1    16    1
     6     1     2   ar
     7    15    19    1
     8    19    23   ar
     9    20    21   ar
    10    22    23   ar
    11     3     4   ar
    12     5     6   ar
    13     7     6    1
    14     8     9   ar
    15    10    14   ar
    16    10     4   ar
    17    11    12   ar
    18    11     2   ar
    19    12    13   ar
    20    16    15   am
    21     1    13   ar
    22    15    17    2
    23    19    20   ar
    24    21    22   ar
    25     2     3   ar
    26     4     5   ar
    27     6     8   ar
    28     9    10   ar
    29    11    14   ar
    30    16    18    1
@<TRIPOS>MOLECULE
MolPort-002-605-953 2394610 CSSS00160675838 LN00665856 MCULE-9368356693 PubChem-1993559 ZINC000002394610 ZINC02394610
 27 30 0 0 0
SMALL
GASTEIGER

@<TRIPOS>ATOM
      1 C          12.2392   40.2764   10.6526 C.ar    1  UNL1        0.1572
      2 C          11.6766   40.1162    9.3955 C.ar    1  UNL1        0.0689
      3 C          10.3756   40.1472    8.9036 C.ar    1  UNL1        0.0074
      4 C          10.2051   39.8735    7.5354 C.ar    1  UNL1        0.0176
      5 C           8.9307   39.8999    6.9650 C.ar    1  UNL1       -0.0028
      6 C           8.7683   39.6239    5.6038 C.ar    1  UNL1       -0.0218
      7 C           7.4110   39.6539    4.9998 C.3     1  UNL1        0.0310
      8 C           9.8784   39.3191    4.8084 C.ar    1  UNL1       -0.0027
      9 C          11.1605   39.2871    5.3658 C.ar    1  UNL1        0.0188
     10 C          11.3394   39.5621    6.7236 C.ar    1  UNL1        0.0829
     11 C          12.7323   39.8015    8.5906 C.ar    1  UNL1        0.1621
     12 N          13.8623   39.7560    9.3122 N.ar    1  UNL1       -0.2329
     13 N          13.5720   40.0377   10.5783 N.ar    1  UNL1       -0.1527
     14 N          12.5916   39.5220    7.2703 N.ar    1  UNL1       -0.2268
     15 C          10.4693   41.4471   12.0706 C.2     1  UNL1        0.2853
     16 N          11.5646   40.5426   11.8881 N.am    1  UNL1       -0.2618
     17 O          10.1997   42.3149   11.1984 O.2     1  UNL1       -0.2664
     18 H          11.8831   40.0595   12.6846 H       1  UNL1        0.1567
     19 C           9.6861   41.4032   13.3094 C.ar    1  UNL1        0.1988
     20 C          10.0374   40.7214   14.4553 C.ar    1  UNL1        0.0455
     21 C           9.0054   40.9688   15.3438 C.ar    1  UNL1        0.0440
     22 C           8.0995   41.7805   14.6823 C.ar    1  UNL1        0.1798
     23 O           8.5417   42.0170   13.4710 O.2     1  UNL1       -0.4458
     24 C          15.1952   39.4468    8.8189 C.3     1  UNL1        0.1292
     25 C          15.6808   38.1365    9.4159 C.3     1  UNL1        0.0264
     26 C          17.4314   39.6749   10.3002 C.3     1  UNL1        0.0001
     27 C          16.6488   38.4003   10.5550 C.3     1  UNL1        0.0021
@<TRIPOS>BOND
     1    26    27    1
     2    27    25    1
     3    25    24    1
     4    24    12    1
     5     1    16    1
     6     1     2   ar
     7    15    19    1
     8    19    23   ar
     9    20    21   ar
    10    22    23   ar
    11     3     4   ar
    12     5     6   ar
    13     7     6    1
    14     8     9   ar
    15    10    14   ar
    16    10     4   ar
    17    11    12   ar
    18    11     2   ar
    19    12    13   ar
    20    16    15   am
    21     1    13   ar
    22    15    17    2
    23    19    20   ar
    24    21    22   ar
    25     2     3   ar
    26     4     5   ar
    27     6     8   ar
    28     9    10   ar
    29    11    14   ar
    30    16    18    1
@<TRIPOS>MOLECULE
MolPort-002-605-953 2394610 CSSS00160675838 LN00665856 MCULE-9368356693 PubChem-1993559 ZINC000002394610 ZINC02394610
 27 30 0 0 0
SMALL
GASTEIGER

@<TRIPOS>ATOM
      1 C          13.1251   40.8997    9.0212 C.ar    1  UNL1        0.1572
      2 C          13.2342   39.5274    9.1864 C.ar    1  UNL1        0.0689
      3 C          14.1394   38.5661    8.7477 C.ar    1  UNL1        0.0074
      4 C          13.8659   37.2304    9.0897 C.ar    1  UNL1        0.0176
      5 C          14.7354   36.2105    8.6978 C.ar    1  UNL1       -0.0028
      6 C          14.4557   34.8837    9.0392 C.ar    1  UNL1       -0.0218
      7 C          15.3836   33.8009    8.6215 C.3     1  UNL1        0.0310
      8 C          13.3052   34.5713    9.7719 C.ar    1  UNL1       -0.0027
      9 C          12.4240   35.5816   10.1698 C.ar    1  UNL1        0.0188
     10 C          12.6905   36.9121    9.8380 C.ar    1  UNL1        0.0829
     11 C          12.1161   39.1816    9.8877 C.ar    1  UNL1        0.1621
     12 N          11.3657   40.2689   10.1204 N.ar    1  UNL1       -0.2329
     13 N          11.9694   41.3265    9.5878 N.ar    1  UNL1       -0.1527
     14 N          11.8246   37.8986   10.2193 N.ar    1  UNL1       -0.2268
     15 C          13.6879   42.4305    7.0581 C.2     1  UNL1        0.2853
     16 N          13.9988   41.7672    8.2888 N.am    1  UNL1       -0.2618
     17 O          12.7066   42.0628    6.3593 O.2     1  UNL1       -0.2664
     18 H          14.8950   41.9216    8.6660 H       1  UNL1        0.1567
     19 C          14.5515   43.5123    6.5745 C.ar    1  UNL1        0.1988
     20 C          15.9175   43.5851    6.7482 C.ar    1  UNL1        0.0455
     21 C          16.2895   44.7669    6.1313 C.ar    1  UNL1        0.0440
     22 C          15.1306   45.3316    5.6261 C.ar    1  UNL1        0.1798
     23 O          14.1153   44.5528    5.9114 O.2     1  UNL1       -0.4458
     24 C          10.0961   40.3118   10.8289 C.3     1  UNL1        0.1292
     25 C          10.0491   41.5262   11.7411 C.3     1  UNL1        0.0264
     26 C           9.3825   43.6150   10.5554 C.3     1  UNL1        0.0001
     27 C           8.8888   42.4285   11.3620 C.3     1  UNL1        0.0021
@<TRIPOS>BOND
     1    26    27    1
     2    27    25    1
     3    25    24    1
     4    24    12    1
     5     1    16    1
     6     1     2   ar
     7    15    19    1
     8    19    23   ar
     9    20    21   ar
    10    22    23   ar
    11     3     4   ar
    12     5     6   ar
    13     7     6    1
    14     8     9   ar
    15    10    14   ar
    16    10     4   ar
    17    11    12   ar
    18    11     2   ar
    19    12    13   ar
    20    16    15   am
    21     1    13   ar
    22    15    17    2
    23    19    20   ar
    24    21    22   ar
    25     2     3   ar
    26     4     5   ar
    27     6     8   ar
    28     9    10   ar
    29    11    14   ar
    30    16    18    1
