@<TRIPOS>MOLECULE
Molport-047-863-824 MCULE-9099266621 PubChem-16062737 ZINC000196109479
 29 31 0 0 0
SMALL
GASTEIGER

@<TRIPOS>ATOM
      1 C          11.7689   40.1049   10.4722 C.ar    1  UNL1        0.0000
      2 C          12.4608   40.9928    9.6477 C.ar    1  UNL1        0.0000
      3 C          11.7970   42.0643    9.0471 C.ar    1  UNL1        0.0000
      4 C          10.4294   42.2597    9.3280 C.ar    1  UNL1        0.0000
      5 C          10.4069   40.3101   10.6965 C.ar    1  UNL1        0.0000
      6 N           9.7752   41.3722   10.1310 N.ar    1  UNL1        0.0000
      7 B          12.5098   38.8944   11.1343 B       1  UNL1        0.0000
      8 O          12.4114   37.5875   10.5064 O.3     1  UNL1        0.0000
      9 O          13.8069   39.1211   11.7493 O.3     1  UNL1        0.0000
     10 C          13.7339   37.3791   10.0872 C.3     1  UNL1        0.0000
     11 C          14.6497   38.3793   10.9078 C.3     1  UNL1        0.0000
     12 C          15.6744   37.6737   11.7916 C.3     1  UNL1        0.0000
     13 C          15.4372   39.3528   10.0285 C.3     1  UNL1        0.0000
     14 C          13.8014   37.5867    8.5725 C.3     1  UNL1        0.0000
     15 C          14.0689   35.9110   10.3345 C.3     1  UNL1        0.0000
     16 O          12.5546   41.6954    6.2531 O.2     1  UNL1        0.0000
     17 C          12.7787   42.8019    6.8169 C.2     1  UNL1        0.0000
     18 N          12.5505   42.9606    8.2205 N.am    1  UNL1        0.0000
     19 H          12.9439   43.7517    8.6548 H       1  UNL1        0.0000
     20 O          13.3003   43.8719    6.0906 O.3     1  UNL1        0.0000
     21 C          14.5331   43.7740    5.3918 C.3     1  UNL1        0.0000
     22 C          15.6435   43.5749    6.3609 C.ar    1  UNL1        0.0000
     23 C          15.5932   42.5173    7.2753 C.ar    1  UNL1        0.0000
     24 C          16.6487   42.3153    8.1701 C.ar    1  UNL1        0.0000
     25 C          17.7576   43.1670    8.1470 C.ar    1  UNL1        0.0000
     26 C          17.8124   44.2192    7.2276 C.ar    1  UNL1        0.0000
     27 C          16.7570   44.4215    6.3327 C.ar    1  UNL1        0.0000
     28 O           9.7551   43.3713    8.8168 O.3     1  UNL1        0.0000
     29 C           8.4201   43.6816    9.1874 C.3     1  UNL1        0.0000
@<TRIPOS>BOND
     1     7     8    1
     2     7     1    1
     3     7     9    1
     4    10     8    1
     5    10    11    1
     6    10    14    1
     7    10    15    1
     8    11     9    1
     9    11    12    1
    10    11    13    1
    11     2     3   ar
    12     3    18    1
    13     4     6   ar
    14     4    28    1
    15     5     1   ar
    16    29    28    1
    17    17    20    1
    18    21    20    1
    19    21    22    1
    20    23    24   ar
    21    25    26   ar
    22    27    22   ar
    23    18    17   am
    24     1     2   ar
    25     3     4   ar
    26     5     6   ar
    27    17    16    2
    28    22    23   ar
    29    24    25   ar
    30    26    27   ar
    31    18    19    1
@<TRIPOS>MOLECULE
Molport-047-863-824 MCULE-9099266621 PubChem-16062737 ZINC000196109479
 29 31 0 0 0
SMALL
GASTEIGER

@<TRIPOS>ATOM
      1 C           7.9473   41.9269   10.7362 C.ar    1  UNL1        0.0000
      2 C           8.7001   41.8860    9.5620 C.ar    1  UNL1        0.0000
      3 C           9.9424   41.2489    9.5399 C.ar    1  UNL1        0.0000
      4 C          10.3979   40.6076   10.7097 C.ar    1  UNL1        0.0000
      5 C           8.4491   41.3125   11.8842 C.ar    1  UNL1        0.0000
      6 N           9.6460   40.6699   11.8460 N.ar    1  UNL1        0.0000
      7 B           6.5606   42.6540   10.7654 B       1  UNL1        0.0000
      8 O           5.9280   43.0018    9.5041 O.3     1  UNL1        0.0000
      9 O           5.5975   42.2804   11.7876 O.3     1  UNL1        0.0000
     10 C           4.8016   42.1657    9.5169 C.3     1  UNL1        0.0000
     11 C           4.5804   41.6990   11.0155 C.3     1  UNL1        0.0000
     12 C           3.2453   42.1531   11.5991 C.3     1  UNL1        0.0000
     13 C           4.6374   40.1813   11.2009 C.3     1  UNL1        0.0000
     14 C           5.0436   41.0102    8.5432 C.3     1  UNL1        0.0000
     15 C           3.6297   42.9639    8.9528 C.3     1  UNL1        0.0000
     16 O          12.0663   43.0587    8.6855 O.2     1  UNL1        0.0000
     17 C          11.8020   42.0389    7.9908 C.2     1  UNL1        0.0000
     18 N          10.6743   41.2172    8.3079 N.am    1  UNL1        0.0000
     19 H          10.3762   40.5765    7.6225 H       1  UNL1        0.0000
     20 O          12.5749   41.7258    6.8733 O.3     1  UNL1        0.0000
     21 C          13.1152   42.7323    6.0291 C.3     1  UNL1        0.0000
     22 C          14.5135   43.0312    6.4380 C.ar    1  UNL1        0.0000
     23 C          15.1913   44.1163    5.8720 C.ar    1  UNL1        0.0000
     24 C          16.4975   44.4122    6.2743 C.ar    1  UNL1        0.0000
     25 C          17.1244   43.6269    7.2469 C.ar    1  UNL1        0.0000
     26 C          16.4444   42.5474    7.8192 C.ar    1  UNL1        0.0000
     27 C          15.1381   42.2512    7.4171 C.ar    1  UNL1        0.0000
     28 O          11.5933   39.8847   10.6992 O.3     1  UNL1        0.0000
     29 C          11.6546   38.5318   10.2728 C.3     1  UNL1        0.0000
@<TRIPOS>BOND
     1     7     8    1
     2     7     1    1
     3     7     9    1
     4    10     8    1
     5    10    11    1
     6    10    14    1
     7    10    15    1
     8    11     9    1
     9    11    12    1
    10    11    13    1
    11     2     3   ar
    12     3    18    1
    13     4     6   ar
    14     4    28    1
    15     5     1   ar
    16    29    28    1
    17    17    20    1
    18    21    20    1
    19    21    22    1
    20    23    24   ar
    21    25    26   ar
    22    27    22   ar
    23    18    17   am
    24     1     2   ar
    25     3     4   ar
    26     5     6   ar
    27    17    16    2
    28    22    23   ar
    29    24    25   ar
    30    26    27   ar
    31    18    19    1
@<TRIPOS>MOLECULE
Molport-047-863-824 MCULE-9099266621 PubChem-16062737 ZINC000196109479
 29 31 0 0 0
SMALL
GASTEIGER

@<TRIPOS>ATOM
      1 C           7.6450   40.8984    6.4463 C.ar    1  UNL1        0.0000
      2 C           8.8202   41.6203    6.2348 C.ar    1  UNL1        0.0000
      3 C           9.9577   40.9879    5.7291 C.ar    1  UNL1        0.0000
      4 C           9.8817   39.6213    5.3913 C.ar    1  UNL1        0.0000
      5 C           7.6201   39.5384    6.1346 C.ar    1  UNL1        0.0000
      6 N           8.7231   38.9375    5.6158 N.ar    1  UNL1        0.0000
      7 B           6.3733   41.6040    7.0272 B       1  UNL1        0.0000
      8 O           5.7801   41.0807    8.2463 O.3     1  UNL1        0.0000
      9 O           6.2743   43.0510    6.9358 O.3     1  UNL1        0.0000
     10 C           6.0223   42.1287    9.1468 C.3     1  UNL1        0.0000
     11 C           6.3388   43.4224    8.2873 C.3     1  UNL1        0.0000
     12 C           5.3337   44.5508    8.5012 C.3     1  UNL1        0.0000
     13 C           7.7207   44.0191    8.5616 C.3     1  UNL1        0.0000
     14 C           7.1647   41.7150   10.0773 C.3     1  UNL1        0.0000
     15 C           4.7840   42.2750   10.0264 C.3     1  UNL1        0.0000
     16 O          12.1929   41.3812    7.5636 O.2     1  UNL1        0.0000
     17 C          12.2718   41.8231    6.3843 C.2     1  UNL1        0.0000
     18 N          11.1382   41.7715    5.5126 N.am    1  UNL1        0.0000
     19 H          11.1719   42.3201    4.6959 H       1  UNL1        0.0000
     20 O          13.4495   42.4148    5.9288 O.3     1  UNL1        0.0000
     21 C          13.9589   43.6101    6.5025 C.3     1  UNL1        0.0000
     22 C          15.3255   43.3666    7.0362 C.ar    1  UNL1        0.0000
     23 C          16.3579   44.2675    6.7536 C.ar    1  UNL1        0.0000
     24 C          17.6371   44.0516    7.2757 C.ar    1  UNL1        0.0000
     25 C          17.8832   42.9383    8.0853 C.ar    1  UNL1        0.0000
     26 C          16.8497   42.0422    8.3752 C.ar    1  UNL1        0.0000
     27 C          15.5703   42.2577    7.8532 C.ar    1  UNL1        0.0000
     28 O          10.9718   38.9781    4.8000 O.3     1  UNL1        0.0000
     29 C          10.8902   38.3800    3.5149 C.3     1  UNL1        0.0000
@<TRIPOS>BOND
     1     7     8    1
     2     7     1    1
     3     7     9    1
     4    10     8    1
     5    10    11    1
     6    10    14    1
     7    10    15    1
     8    11     9    1
     9    11    12    1
    10    11    13    1
    11     2     3   ar
    12     3    18    1
    13     4     6   ar
    14     4    28    1
    15     5     1   ar
    16    29    28    1
    17    17    20    1
    18    21    20    1
    19    21    22    1
    20    23    24   ar
    21    25    26   ar
    22    27    22   ar
    23    18    17   am
    24     1     2   ar
    25     3     4   ar
    26     5     6   ar
    27    17    16    2
    28    22    23   ar
    29    24    25   ar
    30    26    27   ar
    31    18    19    1
@<TRIPOS>MOLECULE
Molport-047-863-824 MCULE-9099266621 PubChem-16062737 ZINC000196109479
 29 31 0 0 0
SMALL
GASTEIGER

@<TRIPOS>ATOM
      1 C          14.4822   40.9264    8.1596 C.ar    1  UNL1        0.0000
      2 C          13.2297   41.1312    7.5795 C.ar    1  UNL1        0.0000
      3 C          12.9725   42.2883    6.8415 C.ar    1  UNL1        0.0000
      4 C          14.0140   43.2195    6.6532 C.ar    1  UNL1        0.0000
      5 C          15.4765   41.8892    7.9819 C.ar    1  UNL1        0.0000
      6 N          15.2263   42.9986    7.2380 N.ar    1  UNL1        0.0000
      7 B          14.7667   39.6357    8.9996 B       1  UNL1        0.0000
      8 O          14.8030   39.7398   10.4487 O.3     1  UNL1        0.0000
      9 O          14.2139   38.3707    8.5454 O.3     1  UNL1        0.0000
     10 C          13.6756   38.9874   10.8109 C.3     1  UNL1        0.0000
     11 C          13.2942   38.0841    9.5654 C.3     1  UNL1        0.0000
     12 C          13.3816   36.5881    9.8546 C.3     1  UNL1        0.0000
     13 C          11.8827   38.3378    9.0321 C.3     1  UNL1        0.0000
     14 C          12.5645   39.9509   11.2341 C.3     1  UNL1        0.0000
     15 C          14.0407   38.1809   12.0538 C.3     1  UNL1        0.0000
     16 O          11.4227   40.2934    5.3804 O.2     1  UNL1        0.0000
     17 C          10.8954   41.4041    5.6644 C.2     1  UNL1        0.0000
     18 N          11.6769   42.4498    6.2501 N.am    1  UNL1        0.0000
     19 H          11.2926   43.3562    6.2465 H       1  UNL1        0.0000
     20 O           9.5553   41.6469    5.3651 O.3     1  UNL1        0.0000
     21 C           8.5045   41.1870    6.2028 C.3     1  UNL1        0.0000
     22 C           7.9116   42.3354    6.9386 C.ar    1  UNL1        0.0000
     23 C           6.8137   43.0177    6.4035 C.ar    1  UNL1        0.0000
     24 C           6.2408   44.0819    7.1070 C.ar    1  UNL1        0.0000
     25 C           6.7616   44.4605    8.3484 C.ar    1  UNL1        0.0000
     26 C           7.8535   43.7735    8.8877 C.ar    1  UNL1        0.0000
     27 C           8.4267   42.7092    8.1845 C.ar    1  UNL1        0.0000
     28 O          13.8193   44.3435    5.8467 O.3     1  UNL1        0.0000
     29 C          14.8563   45.2791    5.5914 C.3     1  UNL1        0.0000
@<TRIPOS>BOND
     1     7     8    1
     2     7     1    1
     3     7     9    1
     4    10     8    1
     5    10    11    1
     6    10    14    1
     7    10    15    1
     8    11     9    1
     9    11    12    1
    10    11    13    1
    11     2     3   ar
    12     3    18    1
    13     4     6   ar
    14     4    28    1
    15     5     1   ar
    16    29    28    1
    17    17    20    1
    18    21    20    1
    19    21    22    1
    20    23    24   ar
    21    25    26   ar
    22    27    22   ar
    23    18    17   am
    24     1     2   ar
    25     3     4   ar
    26     5     6   ar
    27    17    16    2
    28    22    23   ar
    29    24    25   ar
    30    26    27   ar
    31    18    19    1
@<TRIPOS>MOLECULE
Molport-047-863-824 MCULE-9099266621 PubChem-16062737 ZINC000196109479
 29 31 0 0 0
SMALL
GASTEIGER

@<TRIPOS>ATOM
      1 C           9.2179   42.1944    9.8937 C.ar    1  UNL1        0.0000
      2 C          10.2779   42.4788    9.0320 C.ar    1  UNL1        0.0000
      3 C          11.4778   41.7715    9.1291 C.ar    1  UNL1        0.0000
      4 C          11.5804   40.7346   10.0787 C.ar    1  UNL1        0.0000
      5 C           9.3708   41.1857   10.8458 C.ar    1  UNL1        0.0000
      6 N          10.5320   40.4829   10.9141 N.ar    1  UNL1        0.0000
      7 B           7.8770   42.9974    9.7950 B       1  UNL1        0.0000
      8 O           7.7207   43.9662    8.7230 O.3     1  UNL1        0.0000
      9 O           6.6325   42.3215   10.1212 O.3     1  UNL1        0.0000
     10 C           6.7091   43.3713    7.9544 C.3     1  UNL1        0.0000
     11 C           5.9906   42.2983    8.8738 C.3     1  UNL1        0.0000
     12 C           4.5136   42.5992    9.1124 C.3     1  UNL1        0.0000
     13 C           6.0558   40.8733    8.3205 C.3     1  UNL1        0.0000
     14 C           7.3430   42.7754    6.6955 C.3     1  UNL1        0.0000
     15 C           5.7772   44.4829    7.4807 C.3     1  UNL1        0.0000
     16 O          11.6594   41.0502    6.3072 O.2     1  UNL1        0.0000
     17 C          12.5158   41.8319    6.8051 C.2     1  UNL1        0.0000
     18 N          12.5346   42.0859    8.2131 N.am    1  UNL1        0.0000
     19 H          13.3408   42.5124    8.5838 H       1  UNL1        0.0000
     20 O          13.4888   42.4203    5.9980 O.3     1  UNL1        0.0000
     21 C          14.0546   43.6859    6.3071 C.3     1  UNL1        0.0000
     22 C          15.4176   43.5004    6.8727 C.ar    1  UNL1        0.0000
     23 C          15.6806   42.4232    7.7257 C.ar    1  UNL1        0.0000
     24 C          16.9681   42.2346    8.2379 C.ar    1  UNL1        0.0000
     25 C          17.9945   43.1195    7.8927 C.ar    1  UNL1        0.0000
     26 C          17.7342   44.1914    7.0333 C.ar    1  UNL1        0.0000
     27 C          16.4468   44.3803    6.5209 C.ar    1  UNL1        0.0000
     28 O          12.7327   39.9474   10.1434 O.3     1  UNL1        0.0000
     29 C          13.2769   39.5044   11.3777 C.3     1  UNL1        0.0000
@<TRIPOS>BOND
     1     7     8    1
     2     7     1    1
     3     7     9    1
     4    10     8    1
     5    10    11    1
     6    10    14    1
     7    10    15    1
     8    11     9    1
     9    11    12    1
    10    11    13    1
    11     2     3   ar
    12     3    18    1
    13     4     6   ar
    14     4    28    1
    15     5     1   ar
    16    29    28    1
    17    17    20    1
    18    21    20    1
    19    21    22    1
    20    23    24   ar
    21    25    26   ar
    22    27    22   ar
    23    18    17   am
    24     1     2   ar
    25     3     4   ar
    26     5     6   ar
    27    17    16    2
    28    22    23   ar
    29    24    25   ar
    30    26    27   ar
    31    18    19    1
@<TRIPOS>MOLECULE
Molport-047-863-824 MCULE-9099266621 PubChem-16062737 ZINC000196109479
 29 31 0 0 0
SMALL
GASTEIGER

@<TRIPOS>ATOM
      1 C          11.7344   41.3507    8.7397 C.ar    1  UNL1        0.0000
      2 C          10.4783   40.8750    8.3616 C.ar    1  UNL1        0.0000
      3 C           9.3382   41.6578    8.5538 C.ar    1  UNL1        0.0000
      4 C           9.4858   42.9531    9.0900 C.ar    1  UNL1        0.0000
      5 C          11.8355   42.6239    9.3018 C.ar    1  UNL1        0.0000
      6 N          10.7242   43.3903    9.4586 N.ar    1  UNL1        0.0000
      7 B          13.0118   40.4674    8.5379 B       1  UNL1        0.0000
      8 O          14.0996   40.5841    9.4944 O.3     1  UNL1        0.0000
      9 O          12.8519   39.1120    8.0383 O.3     1  UNL1        0.0000
     10 C          14.0705   39.3218   10.1057 C.3     1  UNL1        0.0000
     11 C          13.2589   38.3547    9.1471 C.3     1  UNL1        0.0000
     12 C          14.0892   37.1858    8.6241 C.3     1  UNL1        0.0000
     13 C          12.0175   37.7430    9.7997 C.3     1  UNL1        0.0000
     14 C          13.4501   39.4702   11.4967 C.3     1  UNL1        0.0000
     15 C          15.5156   38.8833   10.3248 C.3     1  UNL1        0.0000
     16 O           6.9618   41.2330   10.1935 O.2     1  UNL1        0.0000
     17 C           6.8906   41.0755    8.9436 C.2     1  UNL1        0.0000
     18 N           8.0703   41.1357    8.1361 N.am    1  UNL1        0.0000
     19 H           8.0057   40.7897    7.2167 H       1  UNL1        0.0000
     20 O           5.6683   40.7898    8.3361 O.3     1  UNL1        0.0000
     21 C           4.5479   41.6535    8.4627 C.3     1  UNL1        0.0000
     22 C           3.9627   41.5185    9.8233 C.ar    1  UNL1        0.0000
     23 C           3.3511   42.6183   10.4343 C.ar    1  UNL1        0.0000
     24 C           2.7791   42.4850   11.7034 C.ar    1  UNL1        0.0000
     25 C           2.8131   41.2505   12.3595 C.ar    1  UNL1        0.0000
     26 C           3.4167   40.1486   11.7456 C.ar    1  UNL1        0.0000
     27 C           3.9888   40.2816   10.4765 C.ar    1  UNL1        0.0000
     28 O           8.3794   43.7972    9.2129 O.3     1  UNL1        0.0000
     29 C           8.5114   45.1747    9.5306 C.3     1  UNL1        0.0000
@<TRIPOS>BOND
     1     7     8    1
     2     7     1    1
     3     7     9    1
     4    10     8    1
     5    10    11    1
     6    10    14    1
     7    10    15    1
     8    11     9    1
     9    11    12    1
    10    11    13    1
    11     2     3   ar
    12     3    18    1
    13     4     6   ar
    14     4    28    1
    15     5     1   ar
    16    29    28    1
    17    17    20    1
    18    21    20    1
    19    21    22    1
    20    23    24   ar
    21    25    26   ar
    22    27    22   ar
    23    18    17   am
    24     1     2   ar
    25     3     4   ar
    26     5     6   ar
    27    17    16    2
    28    22    23   ar
    29    24    25   ar
    30    26    27   ar
    31    18    19    1
@<TRIPOS>MOLECULE
Molport-047-863-824 MCULE-9099266621 PubChem-16062737 ZINC000196109479
 29 31 0 0 0
SMALL
GASTEIGER

@<TRIPOS>ATOM
      1 C          12.4617   40.4759    9.8182 C.ar    1  UNL1        0.0000
      2 C          13.4049   39.7526   10.5492 C.ar    1  UNL1        0.0000
      3 C          14.7569   39.8021   10.2040 C.ar    1  UNL1        0.0000
      4 C          15.1557   40.6325    9.1369 C.ar    1  UNL1        0.0000
      5 C          12.8908   41.2576    8.7449 C.ar    1  UNL1        0.0000
      6 N          14.2122   41.3225    8.4340 N.ar    1  UNL1        0.0000
      7 B          10.9433   40.4092   10.1959 B       1  UNL1        0.0000
      8 O          10.4429   41.2934   11.2350 O.3     1  UNL1        0.0000
      9 O           9.9703   40.1829    9.1404 O.3     1  UNL1        0.0000
     10 C           9.5945   42.1353   10.5004 C.3     1  UNL1        0.0000
     11 C           9.2785   41.4036    9.1303 C.3     1  UNL1        0.0000
     12 C           7.7971   41.0896    8.9405 C.3     1  UNL1        0.0000
     13 C           9.7119   42.1972    7.8960 C.3     1  UNL1        0.0000
     14 C          10.2853   43.4900   10.3282 C.3     1  UNL1        0.0000
     15 C           8.3528   42.3916   11.3496 C.3     1  UNL1        0.0000
     16 O          15.6176   37.0424    9.8041 O.2     1  UNL1        0.0000
     17 C          16.1898   37.7515   10.6771 C.2     1  UNL1        0.0000
     18 N          15.6931   39.0559   10.9922 N.am    1  UNL1        0.0000
     19 H          16.0218   39.4759   11.8197 H       1  UNL1        0.0000
     20 O          17.2843   37.2549   11.3841 O.3     1  UNL1        0.0000
     21 C          18.6087   37.3501   10.8799 C.3     1  UNL1        0.0000
     22 C          18.9353   36.1288   10.0965 C.ar    1  UNL1        0.0000
     23 C          18.8943   36.1624    8.6985 C.ar    1  UNL1        0.0000
     24 C          19.2252   35.0211    7.9613 C.ar    1  UNL1        0.0000
     25 C          19.6030   33.8476    8.6213 C.ar    1  UNL1        0.0000
     26 C          19.6525   33.8159   10.0184 C.ar    1  UNL1        0.0000
     27 C          19.3216   34.9571   10.7560 C.ar    1  UNL1        0.0000
     28 O          16.5090   40.7760    8.8210 O.3     1  UNL1        0.0000
     29 C          17.0813   42.0358    8.5031 C.3     1  UNL1        0.0000
@<TRIPOS>BOND
     1     7     8    1
     2     7     1    1
     3     7     9    1
     4    10     8    1
     5    10    11    1
     6    10    14    1
     7    10    15    1
     8    11     9    1
     9    11    12    1
    10    11    13    1
    11     2     3   ar
    12     3    18    1
    13     4     6   ar
    14     4    28    1
    15     5     1   ar
    16    29    28    1
    17    17    20    1
    18    21    20    1
    19    21    22    1
    20    23    24   ar
    21    25    26   ar
    22    27    22   ar
    23    18    17   am
    24     1     2   ar
    25     3     4   ar
    26     5     6   ar
    27    17    16    2
    28    22    23   ar
    29    24    25   ar
    30    26    27   ar
    31    18    19    1
@<TRIPOS>MOLECULE
Molport-047-863-824 MCULE-9099266621 PubChem-16062737 ZINC000196109479
 29 31 0 0 0
SMALL
GASTEIGER

@<TRIPOS>ATOM
      1 C          14.9036   41.0193    8.4999 C.ar    1  UNL1        0.0000
      2 C          13.5484   41.2736    8.2863 C.ar    1  UNL1        0.0000
      3 C          13.1457   42.3828    7.5399 C.ar    1  UNL1        0.0000
      4 C          14.1325   43.2106    6.9670 C.ar    1  UNL1        0.0000
      5 C          15.8502   41.8831    7.9475 C.ar    1  UNL1        0.0000
      6 N          15.4500   42.9440    7.1983 N.ar    1  UNL1        0.0000
      7 B          15.3554   39.7835    9.3493 B       1  UNL1        0.0000
      8 O          15.1599   39.8169   10.7890 O.3     1  UNL1        0.0000
      9 O          15.1797   38.4522    8.7936 O.3     1  UNL1        0.0000
     10 C          14.1966   38.8120   10.9632 C.3     1  UNL1        0.0000
     11 C          14.2152   37.9126    9.6580 C.3     1  UNL1        0.0000
     12 C          14.6030   36.4617    9.9293 C.3     1  UNL1        0.0000
     13 C          12.8740   37.8695    8.9228 C.3     1  UNL1        0.0000
     14 C          12.8447   39.4768   11.2318 C.3     1  UNL1        0.0000
     15 C          14.5570   38.0442   12.2318 C.3     1  UNL1        0.0000
     16 O          10.9981   40.4168    7.7368 O.2     1  UNL1        0.0000
     17 C          10.7123   41.6353    7.5759 C.2     1  UNL1        0.0000
     18 N          11.7437   42.5966    7.3322 N.am    1  UNL1        0.0000
     19 H          11.4673   43.4787    6.9935 H       1  UNL1        0.0000
     20 O           9.3828   42.0559    7.5826 O.3     1  UNL1        0.0000
     21 C           8.8982   42.9956    8.5311 C.3     1  UNL1        0.0000
     22 C           8.7084   42.3273    9.8461 C.ar    1  UNL1        0.0000
     23 C           9.8153   42.0443   10.6534 C.ar    1  UNL1        0.0000
     24 C           9.6348   41.4381   11.9007 C.ar    1  UNL1        0.0000
     25 C           8.3471   41.1203   12.3438 C.ar    1  UNL1        0.0000
     26 C           7.2396   41.4107   11.5410 C.ar    1  UNL1        0.0000
     27 C           7.4198   42.0168   10.2936 C.ar    1  UNL1        0.0000
     28 O          13.7678   44.2765    6.1407 O.3     1  UNL1        0.0000
     29 C          14.7307   45.1127    5.5167 C.3     1  UNL1        0.0000
@<TRIPOS>BOND
     1     7     8    1
     2     7     1    1
     3     7     9    1
     4    10     8    1
     5    10    11    1
     6    10    14    1
     7    10    15    1
     8    11     9    1
     9    11    12    1
    10    11    13    1
    11     2     3   ar
    12     3    18    1
    13     4     6   ar
    14     4    28    1
    15     5     1   ar
    16    29    28    1
    17    17    20    1
    18    21    20    1
    19    21    22    1
    20    23    24   ar
    21    25    26   ar
    22    27    22   ar
    23    18    17   am
    24     1     2   ar
    25     3     4   ar
    26     5     6   ar
    27    17    16    2
    28    22    23   ar
    29    24    25   ar
    30    26    27   ar
    31    18    19    1
@<TRIPOS>MOLECULE
Molport-047-863-824 MCULE-9099266621 PubChem-16062737 ZINC000196109479
 29 31 0 0 0
SMALL
GASTEIGER

@<TRIPOS>ATOM
      1 C          11.1501   38.5833    9.0786 C.ar    1  UNL1        0.0000
      2 C          12.3115   39.2553    9.4614 C.ar    1  UNL1        0.0000
      3 C          13.2483   38.6336   10.2894 C.ar    1  UNL1        0.0000
      4 C          13.0225   37.3009   10.6899 C.ar    1  UNL1        0.0000
      5 C          10.9442   37.2777    9.5261 C.ar    1  UNL1        0.0000
      6 N          11.8749   36.6702   10.3080 N.ar    1  UNL1        0.0000
      7 B          10.0921   39.2854    8.1619 B       1  UNL1        0.0000
      8 O           9.3079   40.3785    8.7116 O.3     1  UNL1        0.0000
      9 O          10.4030   39.4749    6.7550 O.3     1  UNL1        0.0000
     10 C           9.7784   41.4653    7.9595 C.3     1  UNL1        0.0000
     11 C          10.4896   40.8729    6.6728 C.3     1  UNL1        0.0000
     12 C           9.8256   41.2974    5.3659 C.3     1  UNL1        0.0000
     13 C          11.9646   41.2618    6.5525 C.3     1  UNL1        0.0000
     14 C          10.7059   42.3021    8.8436 C.3     1  UNL1        0.0000
     15 C           8.5803   42.3525    7.6338 C.3     1  UNL1        0.0000
     16 O          15.8326   38.5854    8.9346 O.2     1  UNL1        0.0000
     17 C          15.6369   39.4087    9.8708 C.2     1  UNL1        0.0000
     18 N          14.4346   39.3553   10.6447 N.am    1  UNL1        0.0000
     19 H          14.4210   39.8563   11.4921 H       1  UNL1        0.0000
     20 O          16.6117   40.3505   10.1984 O.3     1  UNL1        0.0000
     21 C          17.5655   40.8042    9.2488 C.3     1  UNL1        0.0000
     22 C          17.0092   41.9574    8.4920 C.ar    1  UNL1        0.0000
     23 C          17.7996   43.0878    8.2585 C.ar    1  UNL1        0.0000
     24 C          17.2849   44.1621    7.5260 C.ar    1  UNL1        0.0000
     25 C          15.9820   44.1040    7.0214 C.ar    1  UNL1        0.0000
     26 C          15.1945   42.9707    7.2472 C.ar    1  UNL1        0.0000
     27 C          15.7088   41.8963    7.9798 C.ar    1  UNL1        0.0000
     28 O          13.9801   36.6179   11.4436 O.3     1  UNL1        0.0000
     29 C          15.0889   37.2791   12.0346 C.3     1  UNL1        0.0000
@<TRIPOS>BOND
     1     7     8    1
     2     7     1    1
     3     7     9    1
     4    10     8    1
     5    10    11    1
     6    10    14    1
     7    10    15    1
     8    11     9    1
     9    11    12    1
    10    11    13    1
    11     2     3   ar
    12     3    18    1
    13     4     6   ar
    14     4    28    1
    15     5     1   ar
    16    29    28    1
    17    17    20    1
    18    21    20    1
    19    21    22    1
    20    23    24   ar
    21    25    26   ar
    22    27    22   ar
    23    18    17   am
    24     1     2   ar
    25     3     4   ar
    26     5     6   ar
    27    17    16    2
    28    22    23   ar
    29    24    25   ar
    30    26    27   ar
    31    18    19    1
@<TRIPOS>MOLECULE
Molport-047-863-824 MCULE-9099266621 PubChem-16062737 ZINC000196109479
 29 31 0 0 0
SMALL
GASTEIGER

@<TRIPOS>ATOM
      1 C          10.4867   40.7630    8.3972 C.ar    1  UNL1        0.0000
      2 C          11.7135   40.9281    9.0411 C.ar    1  UNL1        0.0000
      3 C          12.3857   39.8273    9.5759 C.ar    1  UNL1        0.0000
      4 C          11.8267   38.5438    9.4102 C.ar    1  UNL1        0.0000
      5 C           9.9474   39.4808    8.2858 C.ar    1  UNL1        0.0000
      6 N          10.6223   38.4115    8.7838 N.ar    1  UNL1        0.0000
      7 B           9.7253   41.9992    7.8101 B       1  UNL1        0.0000
      8 O           8.8565   41.8031    6.6618 O.3     1  UNL1        0.0000
      9 O           9.2192   43.0074    8.7262 O.3     1  UNL1        0.0000
     10 C           7.5952   42.0629    7.2185 C.3     1  UNL1        0.0000
     11 C           7.8330   42.8594    8.5682 C.3     1  UNL1        0.0000
     12 C           7.2204   44.2572    8.5610 C.3     1  UNL1        0.0000
     13 C           7.2760   42.1516    9.8051 C.3     1  UNL1        0.0000
     14 C           6.8661   40.7314    7.4113 C.3     1  UNL1        0.0000
     15 C           6.7899   42.8478    6.1869 C.3     1  UNL1        0.0000
     16 O          14.9866   38.7797    8.7673 O.2     1  UNL1        0.0000
     17 C          14.9201   39.6225    9.7041 C.2     1  UNL1        0.0000
     18 N          13.6508   40.0411   10.2149 N.am    1  UNL1        0.0000
     19 H          13.6459   40.5157   11.0774 H       1  UNL1        0.0000
     20 O          16.0833   40.1205   10.2901 O.3     1  UNL1        0.0000
     21 C          17.1896   40.5529    9.5114 C.3     1  UNL1        0.0000
     22 C          16.8193   41.7766    8.7515 C.ar    1  UNL1        0.0000
     23 C          17.6355   42.9112    8.8113 C.ar    1  UNL1        0.0000
     24 C          17.3005   44.0535    8.0775 C.ar    1  UNL1        0.0000
     25 C          16.1525   44.0598    7.2790 C.ar    1  UNL1        0.0000
     26 C          15.3409   42.9230    7.2120 C.ar    1  UNL1        0.0000
     27 C          15.6756   41.7806    7.9458 C.ar    1  UNL1        0.0000
     28 O          12.5144   37.4112    9.8530 O.3     1  UNL1        0.0000
     29 C          11.8556   36.3308   10.4970 C.3     1  UNL1        0.0000
@<TRIPOS>BOND
     1     7     8    1
     2     7     1    1
     3     7     9    1
     4    10     8    1
     5    10    11    1
     6    10    14    1
     7    10    15    1
     8    11     9    1
     9    11    12    1
    10    11    13    1
    11     2     3   ar
    12     3    18    1
    13     4     6   ar
    14     4    28    1
    15     5     1   ar
    16    29    28    1
    17    17    20    1
    18    21    20    1
    19    21    22    1
    20    23    24   ar
    21    25    26   ar
    22    27    22   ar
    23    18    17   am
    24     1     2   ar
    25     3     4   ar
    26     5     6   ar
    27    17    16    2
    28    22    23   ar
    29    24    25   ar
    30    26    27   ar
    31    18    19    1
