@<TRIPOS>MOLECULE
MolPort-002-774-842 36613896 CSSS00133006967 MCULE-1758707570 PubChem-19590973 ZINC000036613896 ZINC36613896
 33 37 0 0 0
SMALL
GASTEIGER

@<TRIPOS>ATOM
      1 C          12.4589   42.1443    7.2384 C.ar    1  UNL1        0.1563
      2 C          14.3921   42.8824    6.6350 C.ar    1  UNL1        0.1584
      3 C          16.5159   42.4907    7.5595 C.ar    1  UNL1        0.1539
      4 C          15.9308   41.6470    8.5356 C.ar    1  UNL1        0.0190
      5 C          14.5411   41.4045    8.5302 C.ar    1  UNL1       -0.0154
      6 C          13.7968   42.0676    7.5509 C.ar    1  UNL1        0.0647
      7 N          12.2936   42.9726    6.1792 N.ar    1  UNL1       -0.1561
      8 N          13.4864   43.4294    5.8059 N.ar    1  UNL1       -0.2584
      9 N          15.7284   43.1079    6.6244 N.ar    1  UNL1       -0.2231
     10 H          13.6704   44.0497    5.0639 H       1  UNL1        0.1906
     11 F          18.6669   41.5650    7.7788 F       1  UNL1       -0.1644
     12 F          18.3021   43.6190    8.6284 F       1  UNL1       -0.1644
     13 F          18.3944   43.3279    6.3996 F       1  UNL1       -0.1644
     14 C          17.9900   42.7561    7.5927 C.3     1  UNL1        0.4349
     15 C          10.8064   41.9403    9.1523 C.2     1  UNL1        0.2521
     16 N          11.3967   41.4819    7.9321 N.am    1  UNL1       -0.2663
     17 O          11.1964   43.0039    9.7027 O.2     1  UNL1       -0.2726
     18 H          11.0463   40.6492    7.5409 H       1  UNL1        0.1564
     19 C           9.7339   41.1325    9.7996 C.3     1  UNL1        0.2117
     20 C           7.2882   40.6998    7.2561 C.ar    1  UNL1        0.1416
     21 C           7.5978   42.0683    8.9041 C.ar    1  UNL1        0.0535
     22 C           6.7935   41.8414    7.8574 C.ar    1  UNL1        0.0117
     23 C           6.1998   43.0725    7.3053 C.3     1  UNL1        0.0294
     24 C           6.6819   44.1504    8.3004 C.3     1  UNL1        0.0110
     25 C           7.6904   43.4946    9.2681 C.3     1  UNL1        0.0455
     26 N           8.3569   40.2626    7.9609 N.ar    1  UNL1       -0.1683
     27 N           8.5438   41.1146    8.9620 N.ar    1  UNL1       -0.2460
     28 F           5.6056   39.5818    6.0443 F       1  UNL1       -0.1915
     29 F           7.7690   39.1549    5.5487 F       1  UNL1       -0.1915
     30 C           6.8712   40.1288    5.9435 C.3     1  UNL1        0.3595
     31 C          13.8933   40.5463    9.5786 C.3     1  UNL1        0.0226
     32 C          13.8241   39.1081    9.0932 C.3     1  UNL1        0.0047
     33 C          14.8616   39.5041   10.1167 C.3     1  UNL1        0.0047
@<TRIPOS>BOND
     1    30    28    1
     2    30    29    1
     3    30    20    1
     4    19    27    1
     5    19    15    1
     6    15    16   am
     7     3     9   ar
     8     4     5   ar
     9    31     5    1
    10    31    32    1
    11    32    33    1
    12    33    31    1
    13     6     1   ar
    14     6     2   ar
    15    14     3    1
    16    14    11    1
    17    14    12    1
    18    14    13    1
    19    22    20   ar
    20    23    22    1
    21    23    24    1
    22    24    25    1
    23    25    21    1
    24    27    26   ar
    25    27    21   ar
    26    16     1    1
    27     8     7   ar
    28     8     2   ar
    29    20    26   ar
    30    15    17    2
    31     1     7   ar
    32     2     9   ar
    33     3     4   ar
    34     5     6   ar
    35    21    22   ar
    36    16    18    1
    37     8    10    1
@<TRIPOS>MOLECULE
MolPort-002-774-842 36613896 CSSS00133006967 MCULE-1758707570 PubChem-19590973 ZINC000036613896 ZINC36613896
 33 37 0 0 0
SMALL
GASTEIGER

@<TRIPOS>ATOM
      1 C          12.6063   42.2668    6.8995 C.ar    1  UNL1        0.1563
      2 C          14.5377   43.1100    6.4469 C.ar    1  UNL1        0.1584
      3 C          16.6208   42.7538    7.4726 C.ar    1  UNL1        0.1539
      4 C          16.0179   41.8382    8.3699 C.ar    1  UNL1        0.0190
      5 C          14.6420   41.5424    8.2718 C.ar    1  UNL1       -0.0154
      6 C          13.9266   42.2260    7.2850 C.ar    1  UNL1        0.0647
      7 N          12.4661   43.1420    5.8751 N.ar    1  UNL1       -0.1561
      8 N          13.6577   43.6637    5.5949 N.ar    1  UNL1       -0.2584
      9 N          15.8618   43.3877    6.5252 N.ar    1  UNL1       -0.2231
     10 H          13.8569   44.3284    4.8965 H       1  UNL1        0.1906
     11 F          18.4969   43.7765    6.4895 F       1  UNL1       -0.1644
     12 F          18.8209   41.9114    7.7102 F       1  UNL1       -0.1644
     13 F          18.2930   43.8437    8.7341 F       1  UNL1       -0.1644
     14 C          18.0784   43.0743    7.6045 C.3     1  UNL1        0.4349
     15 C          10.8889   41.8750    8.7251 C.2     1  UNL1        0.2521
     16 N          11.5356   41.5283    7.4966 N.am    1  UNL1       -0.2663
     17 O          11.2317   42.8995    9.3726 O.2     1  UNL1       -0.2726
     18 H          11.2207   40.7221    7.0274 H       1  UNL1        0.1564
     19 C           9.8133   40.9951    9.2640 C.3     1  UNL1        0.2117
     20 C           9.2089   39.0707    6.3367 C.ar    1  UNL1        0.1416
     21 C           7.9949   40.0091    7.8631 C.ar    1  UNL1        0.0535
     22 C           7.9051   39.3434    6.7044 C.ar    1  UNL1        0.0117
     23 C           6.7108   39.7047    5.9197 C.3     1  UNL1        0.0294
     24 C           5.9598   40.6574    6.8752 C.3     1  UNL1        0.0110
     25 C           6.8713   40.9374    8.0893 C.3     1  UNL1        0.0455
     26 N          10.0416   39.5589    7.2844 N.ar    1  UNL1       -0.1683
     27 N           9.2875   40.1410    8.2092 N.ar    1  UNL1       -0.2460
     28 F          10.9480   38.9668    4.7509 F       1  UNL1       -0.1915
     29 F           8.8086   38.9010    4.0249 F       1  UNL1       -0.1915
     30 C           9.6721   38.5153    5.0329 C.3     1  UNL1        0.3595
     31 C          13.9730   40.6063    9.2367 C.3     1  UNL1        0.0226
     32 C          14.2010   39.1692    8.7989 C.3     1  UNL1        0.0047
     33 C          14.9898   39.7336    9.9565 C.3     1  UNL1        0.0047
@<TRIPOS>BOND
     1    30    28    1
     2    30    29    1
     3    30    20    1
     4    19    27    1
     5    19    15    1
     6    15    16   am
     7     3     9   ar
     8     4     5   ar
     9    31     5    1
    10    31    32    1
    11    32    33    1
    12    33    31    1
    13     6     1   ar
    14     6     2   ar
    15    14     3    1
    16    14    11    1
    17    14    12    1
    18    14    13    1
    19    22    20   ar
    20    23    22    1
    21    23    24    1
    22    24    25    1
    23    25    21    1
    24    27    26   ar
    25    27    21   ar
    26    16     1    1
    27     8     7   ar
    28     8     2   ar
    29    20    26   ar
    30    15    17    2
    31     1     7   ar
    32     2     9   ar
    33     3     4   ar
    34     5     6   ar
    35    21    22   ar
    36    16    18    1
    37     8    10    1
@<TRIPOS>MOLECULE
MolPort-002-774-842 36613896 CSSS00133006967 MCULE-1758707570 PubChem-19590973 ZINC000036613896 ZINC36613896
 33 37 0 0 0
SMALL
GASTEIGER

@<TRIPOS>ATOM
      1 C          12.4128   41.8627    6.5553 C.ar    1  UNL1        0.1563
      2 C          14.3509   42.8044    6.4958 C.ar    1  UNL1        0.1584
      3 C          16.2555   42.4286    7.8187 C.ar    1  UNL1        0.1539
      4 C          15.5587   41.4197    8.5282 C.ar    1  UNL1        0.0190
      5 C          14.2318   41.0889    8.1815 C.ar    1  UNL1       -0.0154
      6 C          13.6541   41.8317    7.1484 C.ar    1  UNL1        0.0647
      7 N          12.3995   42.8183    5.5952 N.ar    1  UNL1       -0.1561
      8 N          13.5953   43.4008    5.5577 N.ar    1  UNL1       -0.2584
      9 N          15.6308   43.1171    6.8130 N.ar    1  UNL1       -0.2231
     10 H          13.8736   44.1296    4.9572 H       1  UNL1        0.1906
     11 F          18.1600   43.7191    7.3292 F       1  UNL1       -0.1644
     12 F          18.4639   41.6604    8.1913 F       1  UNL1       -0.1644
     13 F          17.6669   43.3140    9.4918 F       1  UNL1       -0.1644
     14 C          17.6562   42.7837    8.2140 C.3     1  UNL1        0.4349
     15 C          10.0184   41.0778    6.2617 C.2     1  UNL1        0.2521
     16 N          11.2952   41.0409    6.9069 N.am    1  UNL1       -0.2663
     17 O           9.7996   41.8604    5.2996 O.2     1  UNL1       -0.2726
     18 H          11.4134   40.4030    7.6474 H       1  UNL1        0.1564
     19 C           8.9199   40.1988    6.7540 C.3     1  UNL1        0.2117
     20 C           6.7634   42.4592    8.4506 C.ar    1  UNL1        0.1416
     21 C           8.2639   41.0086    9.0244 C.ar    1  UNL1        0.0535
     22 C           7.4580   41.9506    9.5315 C.ar    1  UNL1        0.0117
     23 C           8.0013   42.5854   10.7459 C.3     1  UNL1        0.0294
     24 C           9.2819   41.7631   11.0074 C.3     1  UNL1        0.0110
     25 C           9.4994   40.8172    9.8069 C.3     1  UNL1        0.0455
     26 N           7.1525   41.8033    7.3333 N.ar    1  UNL1       -0.1683
     27 N           8.0796   40.9244    7.6952 N.ar    1  UNL1       -0.2460
     28 F           6.6241   44.8014    8.6608 F       1  UNL1       -0.1915
     29 F           4.9131   43.5372    9.4239 F       1  UNL1       -0.1915
     30 C           5.8778   43.6585    8.4416 C.3     1  UNL1        0.3595
     31 C          13.4598   40.0515    8.9450 C.3     1  UNL1        0.0226
     32 C          14.1215   39.8073   10.2909 C.3     1  UNL1        0.0047
     33 C          12.8590   40.6326   10.2157 C.3     1  UNL1        0.0047
@<TRIPOS>BOND
     1    30    28    1
     2    30    29    1
     3    30    20    1
     4    19    27    1
     5    19    15    1
     6    15    16   am
     7     3     9   ar
     8     4     5   ar
     9    31     5    1
    10    31    32    1
    11    32    33    1
    12    33    31    1
    13     6     1   ar
    14     6     2   ar
    15    14     3    1
    16    14    11    1
    17    14    12    1
    18    14    13    1
    19    22    20   ar
    20    23    22    1
    21    23    24    1
    22    24    25    1
    23    25    21    1
    24    27    26   ar
    25    27    21   ar
    26    16     1    1
    27     8     7   ar
    28     8     2   ar
    29    20    26   ar
    30    15    17    2
    31     1     7   ar
    32     2     9   ar
    33     3     4   ar
    34     5     6   ar
    35    21    22   ar
    36    16    18    1
    37     8    10    1
@<TRIPOS>MOLECULE
MolPort-002-774-842 36613896 CSSS00133006967 MCULE-1758707570 PubChem-19590973 ZINC000036613896 ZINC36613896
 33 37 0 0 0
SMALL
GASTEIGER

@<TRIPOS>ATOM
      1 C          12.4113   41.9368    7.2307 C.ar    1  UNL1        0.1563
      2 C          14.3294   42.7395    6.6625 C.ar    1  UNL1        0.1584
      3 C          16.4424   42.4468    7.6465 C.ar    1  UNL1        0.1539
      4 C          15.8656   41.5975    8.6227 C.ar    1  UNL1        0.0190
      5 C          14.4869   41.3008    8.5871 C.ar    1  UNL1       -0.0154
      6 C          13.7428   41.9177    7.5778 C.ar    1  UNL1        0.0647
      7 N          12.2414   42.7399    6.1531 N.ar    1  UNL1       -0.1561
      8 N          13.4247   43.2366    5.8015 N.ar    1  UNL1       -0.2584
      9 N          15.6558   43.0168    6.6812 N.ar    1  UNL1       -0.2231
     10 H          13.6036   43.8509    5.0533 H       1  UNL1        0.1906
     11 F          18.1367   43.6328    8.7665 F       1  UNL1       -0.1644
     12 F          18.3181   43.3720    6.5365 F       1  UNL1       -0.1644
     13 F          18.6363   41.6117    7.9007 F       1  UNL1       -0.1644
     14 C          17.9038   42.7701    7.7116 C.3     1  UNL1        0.4349
     15 C          10.5729   41.7932    8.9729 C.2     1  UNL1        0.2521
     16 N          11.3582   41.2453    7.9096 N.am    1  UNL1       -0.2663
     17 O          10.7641   42.9690    9.3817 O.2     1  UNL1       -0.2726
     18 H          11.1592   40.3244    7.6238 H       1  UNL1        0.1564
     19 C           9.5325   40.9510    9.6286 C.3     1  UNL1        0.2117
     20 C           6.0981   41.3693    8.8112 C.ar    1  UNL1        0.1416
     21 C           7.9013   40.8349    7.7400 C.ar    1  UNL1        0.0535
     22 C           6.5762   40.9518    7.5838 C.ar    1  UNL1        0.0117
     23 C           6.0292   40.0327    6.5694 C.3     1  UNL1        0.0294
     24 C           7.3025   39.3762    5.9930 C.3     1  UNL1        0.0110
     25 C           8.5050   39.8243    6.8513 C.3     1  UNL1        0.0455
     26 N           7.1407   41.5093    9.6617 N.ar    1  UNL1       -0.1683
     27 N           8.2390   41.1690    8.9979 N.ar    1  UNL1       -0.2460
     28 F           4.4611   42.6345    9.9377 F       1  UNL1       -0.1915
     29 F           4.3341   40.3791   10.0116 F       1  UNL1       -0.1915
     30 C           4.6699   41.4668    9.2277 C.3     1  UNL1        0.3595
     31 C          13.8461   40.4359    9.6342 C.3     1  UNL1        0.0226
     32 C          13.9560   38.9752    9.2303 C.3     1  UNL1        0.0047
     33 C          14.8666   39.5267   10.3015 C.3     1  UNL1        0.0047
@<TRIPOS>BOND
     1    30    28    1
     2    30    29    1
     3    30    20    1
     4    19    27    1
     5    19    15    1
     6    15    16   am
     7     3     9   ar
     8     4     5   ar
     9    31     5    1
    10    31    32    1
    11    32    33    1
    12    33    31    1
    13     6     1   ar
    14     6     2   ar
    15    14     3    1
    16    14    11    1
    17    14    12    1
    18    14    13    1
    19    22    20   ar
    20    23    22    1
    21    23    24    1
    22    24    25    1
    23    25    21    1
    24    27    26   ar
    25    27    21   ar
    26    16     1    1
    27     8     7   ar
    28     8     2   ar
    29    20    26   ar
    30    15    17    2
    31     1     7   ar
    32     2     9   ar
    33     3     4   ar
    34     5     6   ar
    35    21    22   ar
    36    16    18    1
    37     8    10    1
@<TRIPOS>MOLECULE
MolPort-002-774-842 36613896 CSSS00133006967 MCULE-1758707570 PubChem-19590973 ZINC000036613896 ZINC36613896
 33 37 0 0 0
SMALL
GASTEIGER

@<TRIPOS>ATOM
      1 C          10.8713   42.5079    9.2331 C.ar    1  UNL1        0.1563
      2 C           8.9797   43.4921    9.5487 C.ar    1  UNL1        0.1584
      3 C           7.0064   43.4187    8.2762 C.ar    1  UNL1        0.1539
      4 C           7.6286   42.5246    7.3704 C.ar    1  UNL1        0.0190
      5 C           8.9536   42.0924    7.5895 C.ar    1  UNL1       -0.0154
      6 C           9.6058   42.6239    8.7053 C.ar    1  UNL1        0.0647
      7 N          10.9663   43.2812   10.3414 N.ar    1  UNL1       -0.1561
      8 N           9.7993   43.8897   10.5372 N.ar    1  UNL1       -0.2584
      9 N           7.7021   43.8998    9.3533 N.ar    1  UNL1       -0.2231
     10 H           9.5782   44.5125   11.2669 H       1  UNL1        0.1906
     11 F           4.7144   43.0219    8.6245 F       1  UNL1       -0.1644
     12 F           5.3515   43.9155    6.6575 F       1  UNL1       -0.1644
     13 F           5.4301   45.1581    8.5312 F       1  UNL1       -0.1644
     14 C           5.6067   43.8858    8.0171 C.3     1  UNL1        0.4349
     15 C          12.7114   40.7729    9.4317 C.2     1  UNL1        0.2521
     16 N          11.9368   41.7211    8.6911 N.am    1  UNL1       -0.2663
     17 O          12.4826   40.5592   10.6516 O.2     1  UNL1       -0.2726
     18 H          12.1528   41.8411    7.7381 H       1  UNL1        0.1564
     19 C          13.8264   40.0480    8.7587 C.3     1  UNL1        0.2117
     20 C          16.4510   42.4111    8.3526 C.ar    1  UNL1        0.1416
     21 C          14.6999   41.8180    7.2273 C.ar    1  UNL1        0.0535
     22 C          15.6973   42.7119    7.2342 C.ar    1  UNL1        0.0117
     23 C          15.3317   43.9927    6.6027 C.3     1  UNL1        0.0294
     24 C          13.9166   43.7032    6.0565 C.3     1  UNL1        0.0110
     25 C          13.4742   42.3189    6.5775 C.3     1  UNL1        0.0455
     26 N          15.9031   41.3419    8.9743 N.ar    1  UNL1       -0.1683
     27 N          14.8250   40.9936    8.2822 N.ar    1  UNL1       -0.2460
     28 F          17.1456   44.5207    9.1381 F       1  UNL1       -0.1915
     29 F          18.6413   43.2162    8.0567 F       1  UNL1       -0.1915
     30 C          17.5650   43.2209    8.9237 C.3     1  UNL1        0.3595
     31 C           9.6472   41.1770    6.6220 C.3     1  UNL1        0.0226
     32 C           9.5139   39.7381    7.0918 C.3     1  UNL1        0.0047
     33 C           8.6618   40.2346    5.9480 C.3     1  UNL1        0.0047
@<TRIPOS>BOND
     1    30    28    1
     2    30    29    1
     3    30    20    1
     4    19    27    1
     5    19    15    1
     6    15    16   am
     7     3     9   ar
     8     4     5   ar
     9    31     5    1
    10    31    32    1
    11    32    33    1
    12    33    31    1
    13     6     1   ar
    14     6     2   ar
    15    14     3    1
    16    14    11    1
    17    14    12    1
    18    14    13    1
    19    22    20   ar
    20    23    22    1
    21    23    24    1
    22    24    25    1
    23    25    21    1
    24    27    26   ar
    25    27    21   ar
    26    16     1    1
    27     8     7   ar
    28     8     2   ar
    29    20    26   ar
    30    15    17    2
    31     1     7   ar
    32     2     9   ar
    33     3     4   ar
    34     5     6   ar
    35    21    22   ar
    36    16    18    1
    37     8    10    1
@<TRIPOS>MOLECULE
MolPort-002-774-842 36613896 CSSS00133006967 MCULE-1758707570 PubChem-19590973 ZINC000036613896 ZINC36613896
 33 37 0 0 0
SMALL
GASTEIGER

@<TRIPOS>ATOM
      1 C           9.1885   41.8318    9.0908 C.ar    1  UNL1        0.1563
      2 C           7.4238   41.8602   10.3282 C.ar    1  UNL1        0.1584
      3 C           5.2127   41.2484    9.8225 C.ar    1  UNL1        0.1539
      4 C           5.6137   40.9007    8.5090 C.ar    1  UNL1        0.0190
      5 C           6.9647   41.0170    8.1199 C.ar    1  UNL1       -0.0154
      6 C           7.8474   41.5239    9.0773 C.ar    1  UNL1        0.0647
      7 N           9.5220   42.3254   10.3075 N.ar    1  UNL1       -0.1561
      8 N           8.4333   42.3438   11.0723 N.ar    1  UNL1       -0.2584
      9 N           6.1305   41.7366   10.7141 N.ar    1  UNL1       -0.2231
     10 H           8.3778   42.6528   12.0054 H       1  UNL1        0.1906
     11 F           2.9800   41.2392    9.0831 F       1  UNL1       -0.1644
     12 F           3.4308   42.1549   11.0911 F       1  UNL1       -0.1644
     13 F           3.5366   39.9233   10.8274 F       1  UNL1       -0.1644
     14 C           3.7704   41.1407   10.2131 C.3     1  UNL1        0.4349
     15 C          11.0056   40.5965    7.8229 C.2     1  UNL1        0.2521
     16 N          10.0931   41.6857    7.9915 N.am    1  UNL1       -0.2663
     17 O          11.0590   39.6586    8.6618 O.2     1  UNL1       -0.2726
     18 H          10.0872   42.3865    7.3001 H       1  UNL1        0.1564
     19 C          11.9293   40.5849    6.6531 C.3     1  UNL1        0.2117
     20 C          14.2955   43.1971    6.1893 C.ar    1  UNL1        0.1416
     21 C          13.8719   41.7325    7.7255 C.ar    1  UNL1        0.0535
     22 C          14.7463   42.6913    7.3936 C.ar    1  UNL1        0.0117
     23 C          16.1018   42.4461    7.9184 C.3     1  UNL1        0.0294
     24 C          15.9009   41.1829    8.7836 C.3     1  UNL1        0.0110
     25 C          14.4661   40.6633    8.5497 C.3     1  UNL1        0.0455
     26 N          13.1613   42.5481    5.8397 N.ar    1  UNL1       -0.1683
     27 N          12.9172   41.6459    6.7827 N.ar    1  UNL1       -0.2460
     28 F          16.3335   43.7698    5.1557 F       1  UNL1       -0.1915
     29 F          14.9512   45.4270    5.8274 F       1  UNL1       -0.1915
     30 C          15.0125   44.1522    5.2968 C.3     1  UNL1        0.3595
     31 C           7.4061   40.6927    6.7216 C.3     1  UNL1        0.0226
     32 C           7.8518   39.2419    6.6480 C.3     1  UNL1        0.0047
     33 C           6.5078   39.6418    6.0873 C.3     1  UNL1        0.0047
@<TRIPOS>BOND
     1    30    28    1
     2    30    29    1
     3    30    20    1
     4    19    27    1
     5    19    15    1
     6    15    16   am
     7     3     9   ar
     8     4     5   ar
     9    31     5    1
    10    31    32    1
    11    32    33    1
    12    33    31    1
    13     6     1   ar
    14     6     2   ar
    15    14     3    1
    16    14    11    1
    17    14    12    1
    18    14    13    1
    19    22    20   ar
    20    23    22    1
    21    23    24    1
    22    24    25    1
    23    25    21    1
    24    27    26   ar
    25    27    21   ar
    26    16     1    1
    27     8     7   ar
    28     8     2   ar
    29    20    26   ar
    30    15    17    2
    31     1     7   ar
    32     2     9   ar
    33     3     4   ar
    34     5     6   ar
    35    21    22   ar
    36    16    18    1
    37     8    10    1
@<TRIPOS>MOLECULE
MolPort-002-774-842 36613896 CSSS00133006967 MCULE-1758707570 PubChem-19590973 ZINC000036613896 ZINC36613896
 33 37 0 0 0
SMALL
GASTEIGER

@<TRIPOS>ATOM
      1 C          10.0545   41.4357    7.0472 C.ar    1  UNL1        0.1563
      2 C           8.0315   42.1773    7.1085 C.ar    1  UNL1        0.1584
      3 C           6.5226   42.3069    8.9043 C.ar    1  UNL1        0.1539
      4 C           7.5024   41.7496    9.7625 C.ar    1  UNL1        0.0190
      5 C           8.7845   41.4281    9.2696 C.ar    1  UNL1       -0.0154
      6 C           9.0022   41.6509    7.9073 C.ar    1  UNL1        0.0647
      7 N           9.6999   41.8269    5.7996 N.ar    1  UNL1       -0.1561
      8 N           8.4510   42.2846    5.8360 N.ar    1  UNL1       -0.2584
      9 N           6.8027   42.5029    7.5782 N.ar    1  UNL1       -0.2231
     10 H           7.9329   42.6350    5.0757 H       1  UNL1        0.1906
     11 F           4.8795   43.9590    9.2250 F       1  UNL1       -0.1644
     12 F           5.0986   42.3590   10.7953 F       1  UNL1       -0.1644
     13 F           4.2087   41.8501    8.7928 F       1  UNL1       -0.1644
     14 C           5.1586   42.6217    9.4380 C.3     1  UNL1        0.4349
     15 C          12.3737   41.5589    8.0678 C.2     1  UNL1        0.2521
     16 N          11.3188   40.8632    7.3963 N.am    1  UNL1       -0.2663
     17 O          12.2399   42.7622    8.4147 O.2     1  UNL1       -0.2726
     18 H          11.4743   39.9210    7.1568 H       1  UNL1        0.1564
     19 C          13.6628   40.8597    8.3347 C.3     1  UNL1        0.2117
     20 C          16.5589   42.8782    7.9150 C.ar    1  UNL1        0.1416
     21 C          14.7773   42.4499    6.7630 C.ar    1  UNL1        0.0535
     22 C          15.8735   43.2195    6.7647 C.ar    1  UNL1        0.0117
     23 C          15.6781   44.5074    6.0746 C.3     1  UNL1        0.0294
     24 C          14.2523   44.3644    5.4993 C.3     1  UNL1        0.0110
     25 C          13.6359   43.0646    6.0596 C.3     1  UNL1        0.0455
     26 N          15.8729   41.9075    8.5608 N.ar    1  UNL1       -0.1683
     27 N          14.7779   41.6606    7.8516 N.ar    1  UNL1       -0.2460
     28 F          17.3598   44.3982    9.5267 F       1  UNL1       -0.1915
     29 F          18.3695   44.3231    7.5061 F       1  UNL1       -0.1915
     30 C          17.7471   43.5739    8.4867 C.3     1  UNL1        0.3595
     31 C           9.8256   40.7994   10.1505 C.3     1  UNL1        0.0226
     32 C          10.4487   41.8586   11.0442 C.3     1  UNL1        0.0047
     33 C           9.4388   40.8937   11.6184 C.3     1  UNL1        0.0047
@<TRIPOS>BOND
     1    30    28    1
     2    30    29    1
     3    30    20    1
     4    19    27    1
     5    19    15    1
     6    15    16   am
     7     3     9   ar
     8     4     5   ar
     9    31     5    1
    10    31    32    1
    11    32    33    1
    12    33    31    1
    13     6     1   ar
    14     6     2   ar
    15    14     3    1
    16    14    11    1
    17    14    12    1
    18    14    13    1
    19    22    20   ar
    20    23    22    1
    21    23    24    1
    22    24    25    1
    23    25    21    1
    24    27    26   ar
    25    27    21   ar
    26    16     1    1
    27     8     7   ar
    28     8     2   ar
    29    20    26   ar
    30    15    17    2
    31     1     7   ar
    32     2     9   ar
    33     3     4   ar
    34     5     6   ar
    35    21    22   ar
    36    16    18    1
    37     8    10    1
@<TRIPOS>MOLECULE
MolPort-002-774-842 36613896 CSSS00133006967 MCULE-1758707570 PubChem-19590973 ZINC000036613896 ZINC36613896
 33 37 0 0 0
SMALL
GASTEIGER

@<TRIPOS>ATOM
      1 C          15.6458   39.9732    9.8931 C.ar    1  UNL1        0.1563
      2 C          17.1426   41.2320    8.9870 C.ar    1  UNL1        0.1584
      3 C          16.9147   42.9501    7.4012 C.ar    1  UNL1        0.1539
      4 C          15.5127   42.7475    7.3891 C.ar    1  UNL1        0.0190
      5 C          14.9240   41.7749    8.2244 C.ar    1  UNL1       -0.0154
      6 C          15.7969   41.0179    9.0104 C.ar    1  UNL1        0.0647
      7 N          16.8622   39.6030   10.3607 N.ar    1  UNL1       -0.1561
      8 N          17.7873   40.3791    9.8017 N.ar    1  UNL1       -0.2584
      9 N          17.7138   42.1749    8.1988 N.ar    1  UNL1       -0.2231
     10 H          18.7587   40.3368    9.9556 H       1  UNL1        0.1906
     11 F          16.5942   44.9523    6.2093 F       1  UNL1       -0.1644
     12 F          17.9337   43.3816    5.3079 F       1  UNL1       -0.1644
     13 F          18.6254   44.5498    7.1017 F       1  UNL1       -0.1644
     14 C          17.5267   43.9713    6.4917 C.3     1  UNL1        0.4349
     15 C          13.7874   38.2885    9.5138 C.2     1  UNL1        0.2521
     16 N          14.4083   39.3481   10.2482 N.am    1  UNL1       -0.2663
     17 O          14.3228   37.8177    8.4756 O.2     1  UNL1       -0.2726
     18 H          13.9502   39.6711   11.0576 H       1  UNL1        0.1564
     19 C          12.4719   37.7528    9.9656 C.3     1  UNL1        0.2117
     20 C          10.1744   39.5008    7.8911 C.ar    1  UNL1        0.1416
     21 C          10.7800   39.5907    9.9671 C.ar    1  UNL1        0.0535
     22 C          10.0120   40.2136    9.0636 C.ar    1  UNL1        0.0117
     23 C           9.8548   41.6546    9.3319 C.3     1  UNL1        0.0294
     24 C          10.5774   41.8223   10.6862 C.3     1  UNL1        0.0110
     25 C          11.2772   40.4889   11.0261 C.3     1  UNL1        0.0455
     26 N          11.0142   38.4656    8.1216 N.ar    1  UNL1       -0.1683
     27 N          11.3871   38.5369    9.3939 N.ar    1  UNL1       -0.2460
     28 F           8.3750   39.4839    6.3706 F       1  UNL1       -0.1915
     29 F          10.4796   39.3001    5.5673 F       1  UNL1       -0.1915
     30 C           9.6871   39.8867    6.5359 C.3     1  UNL1        0.3595
     31 C          13.4452   41.5147    8.1994 C.3     1  UNL1        0.0226
     32 C          12.7335   42.6661    7.5090 C.3     1  UNL1        0.0047
     33 C          12.9341   41.3615    6.7751 C.3     1  UNL1        0.0047
@<TRIPOS>BOND
     1    30    28    1
     2    30    29    1
     3    30    20    1
     4    19    27    1
     5    19    15    1
     6    15    16   am
     7     3     9   ar
     8     4     5   ar
     9    31     5    1
    10    31    32    1
    11    32    33    1
    12    33    31    1
    13     6     1   ar
    14     6     2   ar
    15    14     3    1
    16    14    11    1
    17    14    12    1
    18    14    13    1
    19    22    20   ar
    20    23    22    1
    21    23    24    1
    22    24    25    1
    23    25    21    1
    24    27    26   ar
    25    27    21   ar
    26    16     1    1
    27     8     7   ar
    28     8     2   ar
    29    20    26   ar
    30    15    17    2
    31     1     7   ar
    32     2     9   ar
    33     3     4   ar
    34     5     6   ar
    35    21    22   ar
    36    16    18    1
    37     8    10    1
@<TRIPOS>MOLECULE
MolPort-002-774-842 36613896 CSSS00133006967 MCULE-1758707570 PubChem-19590973 ZINC000036613896 ZINC36613896
 33 37 0 0 0
SMALL
GASTEIGER

@<TRIPOS>ATOM
      1 C          12.2443   42.0624    6.7104 C.ar    1  UNL1        0.1563
      2 C          14.3566   42.4868    6.7771 C.ar    1  UNL1        0.1584
      3 C          16.0014   41.7425    8.2802 C.ar    1  UNL1        0.1539
      4 C          15.0216   40.9900    8.9735 C.ar    1  UNL1        0.0190
      5 C          13.6834   40.9759    8.5271 C.ar    1  UNL1       -0.0154
      6 C          13.3902   41.7654    7.4119 C.ar    1  UNL1        0.0647
      7 N          12.5440   42.9225    5.7075 N.ar    1  UNL1       -0.1561
      8 N          13.8477   43.1856    5.7478 N.ar    1  UNL1       -0.2584
      9 N          15.6471   42.4931    7.1909 N.ar    1  UNL1       -0.2231
     10 H          14.3449   43.7791    5.1396 H       1  UNL1        0.1906
     11 F          17.6554   42.9675    9.4185 F       1  UNL1       -0.1644
     12 F          18.3009   41.6266    7.7276 F       1  UNL1       -0.1644
     13 F          17.6157   40.7274    9.6726 F       1  UNL1       -0.1644
     14 C          17.4135   41.7652    8.7803 C.3     1  UNL1        0.4349
     15 C           9.9588   41.2071    6.0173 C.2     1  UNL1        0.2521
     16 N          10.9323   41.5704    7.0012 N.am    1  UNL1       -0.2663
     17 O          10.2159   41.2924    4.7873 O.2     1  UNL1       -0.2726
     18 H          10.6808   41.4748    7.9482 H       1  UNL1        0.1564
     19 C           8.6087   40.7493    6.4523 C.3     1  UNL1        0.2117
     20 C           7.7433   43.3604    8.7043 C.ar    1  UNL1        0.1416
     21 C           6.6897   41.7674    7.6860 C.ar    1  UNL1        0.0535
     22 C           6.5137   42.7404    8.5895 C.ar    1  UNL1        0.0117
     23 C           5.4661   42.4297    9.5788 C.3     1  UNL1        0.0294
     24 C           4.8947   41.0956    9.0516 C.3     1  UNL1        0.0110
     25 C           5.7852   40.6193    7.8839 C.3     1  UNL1        0.0455
     26 N           8.6152   42.7616    7.8609 N.ar    1  UNL1       -0.1683
     27 N           7.9617   41.7804    7.2502 N.ar    1  UNL1       -0.2460
     28 F           7.7695   45.6439    9.2829 F       1  UNL1       -0.1915
     29 F           9.5040   44.3411    9.9173 F       1  UNL1       -0.1915
     30 C           8.1374   44.3832    9.7149 C.3     1  UNL1        0.3595
     31 C          12.6200   40.2182    9.2688 C.3     1  UNL1        0.0226
     32 C          13.0290   40.0508   10.7226 C.3     1  UNL1        0.0047
     33 C          11.9832   41.0754   10.3520 C.3     1  UNL1        0.0047
@<TRIPOS>BOND
     1    30    28    1
     2    30    29    1
     3    30    20    1
     4    19    27    1
     5    19    15    1
     6    15    16   am
     7     3     9   ar
     8     4     5   ar
     9    31     5    1
    10    31    32    1
    11    32    33    1
    12    33    31    1
    13     6     1   ar
    14     6     2   ar
    15    14     3    1
    16    14    11    1
    17    14    12    1
    18    14    13    1
    19    22    20   ar
    20    23    22    1
    21    23    24    1
    22    24    25    1
    23    25    21    1
    24    27    26   ar
    25    27    21   ar
    26    16     1    1
    27     8     7   ar
    28     8     2   ar
    29    20    26   ar
    30    15    17    2
    31     1     7   ar
    32     2     9   ar
    33     3     4   ar
    34     5     6   ar
    35    21    22   ar
    36    16    18    1
    37     8    10    1
@<TRIPOS>MOLECULE
MolPort-002-774-842 36613896 CSSS00133006967 MCULE-1758707570 PubChem-19590973 ZINC000036613896 ZINC36613896
 33 37 0 0 0
SMALL
GASTEIGER

@<TRIPOS>ATOM
      1 C          11.8495   41.5342    7.5371 C.ar    1  UNL1        0.1563
      2 C          13.8929   42.0657    7.1031 C.ar    1  UNL1        0.1584
      3 C          15.8481   41.7009    8.3533 C.ar    1  UNL1        0.1539
      4 C          15.0835   41.0468    9.3506 C.ar    1  UNL1        0.0190
      5 C          13.6913   40.8832    9.1911 C.ar    1  UNL1       -0.0154
      6 C          13.1279   41.4317    8.0359 C.ar    1  UNL1        0.0647
      7 N          11.8812   42.2019    6.3588 N.ar    1  UNL1       -0.1561
      8 N          13.1422   42.5310    6.0899 N.ar    1  UNL1       -0.2584
      9 N          15.2329   42.2131    7.2421 N.ar    1  UNL1       -0.2231
     10 H          13.4640   43.0217    5.2994 H       1  UNL1        0.1906
     11 F          17.8412   40.7842    9.2013 F       1  UNL1       -0.1644
     12 F          17.5700   43.0179    9.3054 F       1  UNL1       -0.1644
     13 F          17.9472   42.0256    7.3220 F       1  UNL1       -0.1644
     14 C          17.3218   41.8866    8.5483 C.3     1  UNL1        0.4349
     15 C           9.9723   41.6991    9.2354 C.2     1  UNL1        0.2521
     16 N          10.6620   41.0431    8.1670 N.am    1  UNL1       -0.2663
     17 O          10.3816   42.7983    9.6942 O.2     1  UNL1       -0.2726
     18 H          10.2923   40.1908    7.8412 H       1  UNL1        0.1564
     19 C           8.7681   41.0586    9.8365 C.3     1  UNL1        0.2117
     20 C           6.2909   43.0631    8.2606 C.ar    1  UNL1        0.1416
     21 C           6.3118   41.5083    9.7662 C.ar    1  UNL1        0.0535
     22 C           5.4932   42.3737    9.1538 C.ar    1  UNL1        0.0117
     23 C           4.3595   42.7946    9.9967 C.3     1  UNL1        0.0294
     24 C           4.5338   41.9144   11.2535 C.3     1  UNL1        0.0110
     25 C           5.8801   41.1684   11.1350 C.3     1  UNL1        0.0455
     26 N           7.5541   42.5864    8.3447 N.ar    1  UNL1       -0.1683
     27 N           7.5573   41.6417    9.2776 N.ar    1  UNL1       -0.2460
     28 F           4.5706   44.2096    7.1311 F       1  UNL1       -0.1915
     29 F           6.6760   44.3331    6.3184 F       1  UNL1       -0.1915
     30 C           5.9104   44.2667    7.4672 C.3     1  UNL1        0.3595
     31 C          12.8544   40.2292   10.2527 C.3     1  UNL1        0.0226
     32 C          12.9476   38.7183   10.1209 C.3     1  UNL1        0.0047
     33 C          13.7126   39.4233   11.2157 C.3     1  UNL1        0.0047
@<TRIPOS>BOND
     1    30    28    1
     2    30    29    1
     3    30    20    1
     4    19    27    1
     5    19    15    1
     6    15    16   am
     7     3     9   ar
     8     4     5   ar
     9    31     5    1
    10    31    32    1
    11    32    33    1
    12    33    31    1
    13     6     1   ar
    14     6     2   ar
    15    14     3    1
    16    14    11    1
    17    14    12    1
    18    14    13    1
    19    22    20   ar
    20    23    22    1
    21    23    24    1
    22    24    25    1
    23    25    21    1
    24    27    26   ar
    25    27    21   ar
    26    16     1    1
    27     8     7   ar
    28     8     2   ar
    29    20    26   ar
    30    15    17    2
    31     1     7   ar
    32     2     9   ar
    33     3     4   ar
    34     5     6   ar
    35    21    22   ar
    36    16    18    1
    37     8    10    1
