@<TRIPOS>MOLECULE
Molport-051-942-616 CSSS20572399210
 26 28 0 0 0
SMALL
GASTEIGER

@<TRIPOS>ATOM
      1 C          13.6127   42.5597    6.9838 C.ar    1  UNL1        0.2276
      2 C          11.7548   42.4362    8.3911 C.ar    1  UNL1        0.2612
      3 C           9.8392   41.6551    8.0019 C.ar    1  UNL1        0.1732
      4 C          11.5491   41.7234    6.1632 C.ar    1  UNL1        0.2134
      5 N          13.0525   42.7726    8.2113 N.ar    1  UNL1       -0.1767
      6 N          11.0684   42.5583    9.5392 N.ar    1  UNL1       -0.1079
      7 N           9.8588   42.0659    9.2913 N.ar    1  UNL1       -0.1268
      8 N          11.0277   41.8995    7.4079 N.ar    1  UNL1       -0.2304
      9 N          12.8581   42.0426    5.9675 N.ar    1  UNL1       -0.1815
     10 C           8.6970   40.9359    7.4120 C.ar    1  UNL1        0.0324
     11 C           8.7196   39.5354    7.4114 C.ar    1  UNL1        0.0027
     12 C           7.6639   38.8098    6.8545 C.ar    1  UNL1        0.0001
     13 C           6.5824   39.4803    6.2801 C.ar    1  UNL1       -0.0003
     14 C           6.5618   40.8767    6.2516 C.ar    1  UNL1       -0.0042
     15 C           7.6144   41.6112    6.8069 C.ar    1  UNL1       -0.0189
     16 C           7.5758   43.0985    6.6955 C.3     1  UNL1        0.0311
     17 C          16.9158   44.1482    5.7242 C.3     1  UNL1        0.0950
     18 C          15.4537   43.9366    5.8827 C.2     1  UNL1        0.2287
     19 O          14.6502   44.6848    5.2659 O.2     1  UNL1       -0.2747
     20 N          14.9849   42.8856    6.7348 N.am    1  UNL1       -0.2538
     21 H          15.6658   42.3390    7.1896 H       1  UNL1        0.1577
     22 C          10.7249   39.9097    4.6259 C.2     1  UNL1        0.2287
     23 C           9.9829   39.5516    3.3897 C.3     1  UNL1        0.0950
     24 O          11.2991   39.0073    5.2914 O.2     1  UNL1       -0.2747
     25 N          10.7620   41.2718    5.0577 N.am    1  UNL1       -0.2549
     26 H          10.2186   41.9320    4.5698 H       1  UNL1        0.1577
@<TRIPOS>BOND
     1    17    18    1
     2    18    20   am
     3     1     9   ar
     4     2     5   ar
     5     3     8   ar
     6     3    10    1
     7     4    25    1
     8    23    22    1
     9    11    12   ar
    10    13    14   ar
    11    15    10   ar
    12    16    15    1
    13    20     1    1
    14     6     7   ar
    15     8     4   ar
    16     8     2   ar
    17    25    22   am
    18    18    19    2
    19     1     5   ar
    20     2     6   ar
    21     3     7   ar
    22     4     9   ar
    23    22    24    2
    24    10    11   ar
    25    12    13   ar
    26    14    15   ar
    27    20    21    1
    28    25    26    1
@<TRIPOS>MOLECULE
Molport-051-942-616 CSSS20572399210
 26 28 0 0 0
SMALL
GASTEIGER

@<TRIPOS>ATOM
      1 C           7.0258   43.8622    7.9372 C.ar    1  UNL1        0.2276
      2 C           8.7961   43.9067    9.4576 C.ar    1  UNL1        0.2612
      3 C          10.5628   42.7624    9.4779 C.ar    1  UNL1        0.1732
      4 C           8.8197   42.3236    7.7234 C.ar    1  UNL1        0.2134
      5 N           7.6081   44.4061    9.0467 N.ar    1  UNL1       -0.1767
      6 N           9.5063   44.3468   10.5093 N.ar    1  UNL1       -0.1079
      7 N          10.6208   43.6224   10.5214 N.ar    1  UNL1       -0.1268
      8 N           9.4031   42.9143    8.8019 N.ar    1  UNL1       -0.2304
      9 N           7.6307   42.8229    7.2865 N.ar    1  UNL1       -0.1815
     10 C          11.6874   41.8883    9.1022 C.ar    1  UNL1        0.0324
     11 C          12.5017   42.2739    8.0296 C.ar    1  UNL1        0.0027
     12 C          13.5740   41.4727    7.6303 C.ar    1  UNL1        0.0001
     13 C          13.8319   40.2709    8.2922 C.ar    1  UNL1       -0.0003
     14 C          13.0105   39.8637    9.3460 C.ar    1  UNL1       -0.0042
     15 C          11.9347   40.6595    9.7526 C.ar    1  UNL1       -0.0189
     16 C          11.0498   40.1512   10.8409 C.3     1  UNL1        0.0311
     17 C           3.3177   44.9097    7.5203 C.3     1  UNL1        0.0950
     18 C           4.5377   44.3648    8.1703 C.2     1  UNL1        0.2287
     19 O           4.4657   43.9208    9.3465 O.2     1  UNL1       -0.2747
     20 N           5.7735   44.3551    7.4472 N.am    1  UNL1       -0.2538
     21 H           5.7613   44.7193    6.5326 H       1  UNL1        0.1577
     22 C           8.7416   40.4933    5.9984 C.2     1  UNL1        0.2287
     23 C           9.3328   39.2354    5.4737 C.3     1  UNL1        0.0950
     24 O           7.6925   40.9543    5.4752 O.2     1  UNL1       -0.2747
     25 N           9.3814   41.1774    7.0781 N.am    1  UNL1       -0.2549
     26 H          10.2520   40.8430    7.3934 H       1  UNL1        0.1577
@<TRIPOS>BOND
     1    17    18    1
     2    18    20   am
     3     1     9   ar
     4     2     5   ar
     5     3     8   ar
     6     3    10    1
     7     4    25    1
     8    23    22    1
     9    11    12   ar
    10    13    14   ar
    11    15    10   ar
    12    16    15    1
    13    20     1    1
    14     6     7   ar
    15     8     4   ar
    16     8     2   ar
    17    25    22   am
    18    18    19    2
    19     1     5   ar
    20     2     6   ar
    21     3     7   ar
    22     4     9   ar
    23    22    24    2
    24    10    11   ar
    25    12    13   ar
    26    14    15   ar
    27    20    21    1
    28    25    26    1
@<TRIPOS>MOLECULE
Molport-051-942-616 CSSS20572399210
 26 28 0 0 0
SMALL
GASTEIGER

@<TRIPOS>ATOM
      1 C           9.7994   41.4793   10.9624 C.ar    1  UNL1        0.2276
      2 C           8.9568   42.2303    8.9194 C.ar    1  UNL1        0.2612
      3 C           9.2560   41.4492    6.9877 C.ar    1  UNL1        0.1732
      4 C          10.4545   40.4218    8.9415 C.ar    1  UNL1        0.2134
      5 N           9.0170   42.3553   10.2649 N.ar    1  UNL1       -0.1767
      6 N           8.2176   42.9926    8.0968 N.ar    1  UNL1       -0.1079
      7 N           8.4087   42.4988    6.8775 N.ar    1  UNL1       -0.1268
      8 N           9.6305   41.2749    8.2739 N.ar    1  UNL1       -0.2304
      9 N          10.5162   40.5232   10.2978 N.ar    1  UNL1       -0.1815
     10 C           9.5944   40.5755    5.8511 C.ar    1  UNL1        0.0324
     11 C          10.7410   40.8701    5.1022 C.ar    1  UNL1        0.0027
     12 C          11.0970   40.0762    4.0095 C.ar    1  UNL1        0.0001
     13 C          10.3001   38.9885    3.6477 C.ar    1  UNL1       -0.0003
     14 C           9.1403   38.7012    4.3712 C.ar    1  UNL1       -0.0042
     15 C           8.7762   39.4906    5.4668 C.ar    1  UNL1       -0.0189
     16 C           7.4961   39.1812    6.1679 C.3     1  UNL1        0.0311
     17 C           9.1491   41.2590   14.7767 C.3     1  UNL1        0.0950
     18 C           8.9018   41.1093   13.3193 C.2     1  UNL1        0.2287
     19 O           7.8229   40.5933   12.9250 O.2     1  UNL1       -0.2747
     20 N           9.8956   41.5543   12.3894 N.am    1  UNL1       -0.2538
     21 H          10.7174   41.9462   12.7639 H       1  UNL1        0.1577
     22 C          12.4518   38.8935    8.8587 C.2     1  UNL1        0.2287
     23 C          13.3296   38.0164    8.0418 C.3     1  UNL1        0.0950
     24 O          12.7332   39.1036   10.0684 O.2     1  UNL1       -0.2747
     25 N          11.2862   39.4729    8.2681 N.am    1  UNL1       -0.2549
     26 H          11.0438   39.2055    7.3522 H       1  UNL1        0.1577
@<TRIPOS>BOND
     1    17    18    1
     2    18    20   am
     3     1     9   ar
     4     2     5   ar
     5     3     8   ar
     6     3    10    1
     7     4    25    1
     8    23    22    1
     9    11    12   ar
    10    13    14   ar
    11    15    10   ar
    12    16    15    1
    13    20     1    1
    14     6     7   ar
    15     8     4   ar
    16     8     2   ar
    17    25    22   am
    18    18    19    2
    19     1     5   ar
    20     2     6   ar
    21     3     7   ar
    22     4     9   ar
    23    22    24    2
    24    10    11   ar
    25    12    13   ar
    26    14    15   ar
    27    20    21    1
    28    25    26    1
@<TRIPOS>MOLECULE
Molport-051-942-616 CSSS20572399210
 26 28 0 0 0
SMALL
GASTEIGER

@<TRIPOS>ATOM
      1 C          10.5734   39.9812    9.7295 C.ar    1  UNL1        0.2276
      2 C           9.1643   41.1678   11.1629 C.ar    1  UNL1        0.2612
      3 C           7.2415   41.9432   10.7988 C.ar    1  UNL1        0.1732
      4 C           8.5022   40.8250    8.9362 C.ar    1  UNL1        0.2134
      5 N          10.3292   40.5093   10.9655 N.ar    1  UNL1       -0.1767
      6 N           8.7658   41.7192   12.3209 N.ar    1  UNL1       -0.1079
      7 N           7.5521   42.2094   12.0890 N.ar    1  UNL1       -0.1268
      8 N           8.2604   41.2994   10.1887 N.ar    1  UNL1       -0.2304
      9 N           9.6630   40.1464    8.7227 N.ar    1  UNL1       -0.1815
     10 C           5.9157   42.2276   10.2234 C.ar    1  UNL1        0.0324
     11 C           5.7898   43.3088    9.3417 C.ar    1  UNL1        0.0027
     12 C           4.5508   43.6235    8.7786 C.ar    1  UNL1        0.0001
     13 C           3.4236   42.8670    9.1045 C.ar    1  UNL1       -0.0003
     14 C           3.5324   41.8031   10.0030 C.ar    1  UNL1       -0.0042
     15 C           4.7688   41.4809   10.5715 C.ar    1  UNL1       -0.0189
     16 C           4.8211   40.3762   11.5730 C.3     1  UNL1        0.0311
     17 C          13.2588   37.2437    9.1683 C.3     1  UNL1        0.0950
     18 C          11.9302   37.8398    9.4636 C.2     1  UNL1        0.2287
     19 O          10.9542   37.0833    9.7101 O.2     1  UNL1       -0.2747
     20 N          11.7839   39.2642    9.4619 N.am    1  UNL1       -0.2538
     21 H          12.5861   39.7976    9.2589 H       1  UNL1        0.1577
     22 C           7.9408   41.9016    6.7322 C.2     1  UNL1        0.2287
     23 C           6.9098   42.1943    5.7034 C.3     1  UNL1        0.0950
     24 O           9.0985   42.3823    6.6083 O.2     1  UNL1       -0.2747
     25 N           7.6133   41.0609    7.8408 N.am    1  UNL1       -0.2549
     26 H           6.7319   40.6223    7.8509 H       1  UNL1        0.1577
@<TRIPOS>BOND
     1    17    18    1
     2    18    20   am
     3     1     9   ar
     4     2     5   ar
     5     3     8   ar
     6     3    10    1
     7     4    25    1
     8    23    22    1
     9    11    12   ar
    10    13    14   ar
    11    15    10   ar
    12    16    15    1
    13    20     1    1
    14     6     7   ar
    15     8     4   ar
    16     8     2   ar
    17    25    22   am
    18    18    19    2
    19     1     5   ar
    20     2     6   ar
    21     3     7   ar
    22     4     9   ar
    23    22    24    2
    24    10    11   ar
    25    12    13   ar
    26    14    15   ar
    27    20    21    1
    28    25    26    1
@<TRIPOS>MOLECULE
Molport-051-942-616 CSSS20572399210
 26 28 0 0 0
SMALL
GASTEIGER

@<TRIPOS>ATOM
      1 C          11.1892   39.9907    5.9752 C.ar    1  UNL1        0.2276
      2 C          12.6728   41.3873    7.1138 C.ar    1  UNL1        0.2612
      3 C          13.9628   40.9367    8.7150 C.ar    1  UNL1        0.1732
      4 C          12.4084   39.1692    7.8380 C.ar    1  UNL1        0.2134
      5 N          11.7692   41.2188    6.1214 N.ar    1  UNL1       -0.1767
      6 N          13.3470   42.5199    7.3718 N.ar    1  UNL1       -0.1079
      7 N          14.1601   42.2340    8.3838 N.ar    1  UNL1       -0.1268
      8 N          13.0084   40.3872    7.9326 N.ar    1  UNL1       -0.2304
      9 N          11.5072   38.9768    6.8357 N.ar    1  UNL1       -0.1815
     10 C          14.7867   40.2353    9.7145 C.ar    1  UNL1        0.0324
     11 C          14.1385   39.4996   10.7148 C.ar    1  UNL1        0.0027
     12 C          14.8772   38.8258   11.6903 C.ar    1  UNL1        0.0001
     13 C          16.2716   38.8945   11.6814 C.ar    1  UNL1       -0.0003
     14 C          16.9276   39.6467   10.7042 C.ar    1  UNL1       -0.0042
     15 C          16.1960   40.3245    9.7237 C.ar    1  UNL1       -0.0189
     16 C          16.9394   41.1649    8.7403 C.3     1  UNL1        0.0311
     17 C           9.3293   38.7321    2.8165 C.3     1  UNL1        0.0950
     18 C          10.4196   38.8768    3.8155 C.2     1  UNL1        0.2287
     19 O          11.4897   38.2312    3.6607 O.2     1  UNL1       -0.2747
     20 N          10.2333   39.7475    4.9368 N.am    1  UNL1       -0.2538
     21 H           9.3722   40.2207    4.9995 H       1  UNL1        0.1577
     22 C          11.6070   37.3608    9.3934 C.2     1  UNL1        0.2287
     23 C          11.9425   36.3768   10.4546 C.3     1  UNL1        0.0950
     24 O          10.4083   37.5050    9.0339 O.2     1  UNL1       -0.2747
     25 N          12.6509   38.1186    8.7776 N.am    1  UNL1       -0.2549
     26 H          13.5833   37.9067    9.0120 H       1  UNL1        0.1577
@<TRIPOS>BOND
     1    17    18    1
     2    18    20   am
     3     1     9   ar
     4     2     5   ar
     5     3     8   ar
     6     3    10    1
     7     4    25    1
     8    23    22    1
     9    11    12   ar
    10    13    14   ar
    11    15    10   ar
    12    16    15    1
    13    20     1    1
    14     6     7   ar
    15     8     4   ar
    16     8     2   ar
    17    25    22   am
    18    18    19    2
    19     1     5   ar
    20     2     6   ar
    21     3     7   ar
    22     4     9   ar
    23    22    24    2
    24    10    11   ar
    25    12    13   ar
    26    14    15   ar
    27    20    21    1
    28    25    26    1
@<TRIPOS>MOLECULE
Molport-051-942-616 CSSS20572399210
 26 28 0 0 0
SMALL
GASTEIGER

@<TRIPOS>ATOM
      1 C          11.6426   42.0099    8.7371 C.ar    1  UNL1        0.2276
      2 C          10.0020   43.2993    9.7829 C.ar    1  UNL1        0.2612
      3 C           7.9379   42.9313    9.9700 C.ar    1  UNL1        0.1732
      4 C           9.3659   41.3472    8.6432 C.ar    1  UNL1        0.2134
      5 N          11.3038   43.1148    9.4654 N.ar    1  UNL1       -0.1767
      6 N           9.5126   44.3161   10.5114 N.ar    1  UNL1       -0.1079
      7 N           8.2090   44.0829   10.6275 N.ar    1  UNL1       -0.1268
      8 N           9.0602   42.4288    9.4106 N.ar    1  UNL1       -0.2304
      9 N          10.6733   41.1373    8.3264 N.ar    1  UNL1       -0.1815
     10 C           6.6105   42.2931    9.9949 C.ar    1  UNL1        0.0324
     11 C           6.3307   41.3766   11.0167 C.ar    1  UNL1        0.0027
     12 C           5.0895   40.7387   11.0761 C.ar    1  UNL1        0.0001
     13 C           4.1222   41.0018   10.1045 C.ar    1  UNL1       -0.0003
     14 C           4.3998   41.8940    9.0661 C.ar    1  UNL1       -0.0042
     15 C           5.6398   42.5373    8.9988 C.ar    1  UNL1       -0.0189
     16 C           5.9106   43.4325    7.8365 C.3     1  UNL1        0.0311
     17 C          15.2082   42.1554    7.2252 C.3     1  UNL1        0.0950
     18 C          13.8043   42.5560    7.5017 C.2     1  UNL1        0.2287
     19 O          13.3396   43.5938    6.9609 O.2     1  UNL1       -0.2747
     20 N          13.0056   41.7544    8.3790 N.am    1  UNL1       -0.2538
     21 H          13.4307   40.9573    8.7706 H       1  UNL1        0.1577
     22 C           7.8130   40.5994    6.8099 C.2     1  UNL1        0.2287
     23 C           6.6861   39.7236    6.3973 C.3     1  UNL1        0.0950
     24 O           8.2823   41.4367    5.9942 O.2     1  UNL1       -0.2747
     25 N           8.3656   40.4681    8.1216 N.am    1  UNL1       -0.2549
     26 H           8.0414   39.7361    8.6946 H       1  UNL1        0.1577
@<TRIPOS>BOND
     1    17    18    1
     2    18    20   am
     3     1     9   ar
     4     2     5   ar
     5     3     8   ar
     6     3    10    1
     7     4    25    1
     8    23    22    1
     9    11    12   ar
    10    13    14   ar
    11    15    10   ar
    12    16    15    1
    13    20     1    1
    14     6     7   ar
    15     8     4   ar
    16     8     2   ar
    17    25    22   am
    18    18    19    2
    19     1     5   ar
    20     2     6   ar
    21     3     7   ar
    22     4     9   ar
    23    22    24    2
    24    10    11   ar
    25    12    13   ar
    26    14    15   ar
    27    20    21    1
    28    25    26    1
@<TRIPOS>MOLECULE
Molport-051-942-616 CSSS20572399210
 26 28 0 0 0
SMALL
GASTEIGER

@<TRIPOS>ATOM
      1 C           9.7832   40.8544    8.2503 C.ar    1  UNL1        0.2276
      2 C          11.5958   41.6973    7.0455 C.ar    1  UNL1        0.2612
      3 C          13.6401   41.7053    7.5474 C.ar    1  UNL1        0.1732
      4 C          11.9626   40.8086    9.1879 C.ar    1  UNL1        0.2134
      5 N          10.2677   41.4527    7.1219 N.ar    1  UNL1       -0.1767
      6 N          12.2284   42.2527    5.9989 N.ar    1  UNL1       -0.1079
      7 N          13.5189   42.2581    6.3179 N.ar    1  UNL1       -0.1268
      8 N          12.4280   41.3605    8.0341 N.ar    1  UNL1       -0.2304
      9 N          10.6305   40.5415    9.2768 N.ar    1  UNL1       -0.1815
     10 C          14.9454   41.4284    8.1714 C.ar    1  UNL1        0.0324
     11 C          15.0879   40.2576    8.9270 C.ar    1  UNL1        0.0027
     12 C          16.3036   39.9573    9.5459 C.ar    1  UNL1        0.0001
     13 C          17.3835   40.8339    9.4258 C.ar    1  UNL1       -0.0003
     14 C          17.2446   42.0172    8.6967 C.ar    1  UNL1       -0.0042
     15 C          16.0312   42.3260    8.0736 C.ar    1  UNL1       -0.0189
     16 C          15.9139   43.6307    7.3596 C.3     1  UNL1        0.0311
     17 C           5.9171   41.0444    8.4456 C.3     1  UNL1        0.0950
     18 C           7.3191   41.5064    8.2758 C.2     1  UNL1        0.2287
     19 O           7.5449   42.7221    8.0376 O.2     1  UNL1       -0.2747
     20 N           8.3881   40.5601    8.3858 N.am    1  UNL1       -0.2538
     21 H           8.1425   39.6249    8.5709 H       1  UNL1        0.1577
     22 C          13.0186   39.2500   10.8574 C.2     1  UNL1        0.2287
     23 C          13.8083   39.0942   12.1061 C.3     1  UNL1        0.0950
     24 O          12.5576   38.2294   10.2805 O.2     1  UNL1       -0.2747
     25 N          12.8079   40.5549   10.3134 N.am    1  UNL1       -0.2549
     26 H          13.2675   41.3169   10.7344 H       1  UNL1        0.1577
@<TRIPOS>BOND
     1    17    18    1
     2    18    20   am
     3     1     9   ar
     4     2     5   ar
     5     3     8   ar
     6     3    10    1
     7     4    25    1
     8    23    22    1
     9    11    12   ar
    10    13    14   ar
    11    15    10   ar
    12    16    15    1
    13    20     1    1
    14     6     7   ar
    15     8     4   ar
    16     8     2   ar
    17    25    22   am
    18    18    19    2
    19     1     5   ar
    20     2     6   ar
    21     3     7   ar
    22     4     9   ar
    23    22    24    2
    24    10    11   ar
    25    12    13   ar
    26    14    15   ar
    27    20    21    1
    28    25    26    1
@<TRIPOS>MOLECULE
Molport-051-942-616 CSSS20572399210
 26 28 0 0 0
SMALL
GASTEIGER

@<TRIPOS>ATOM
      1 C           8.7803   41.0909   12.1744 C.ar    1  UNL1        0.2276
      2 C           6.7502   41.6761   11.1825 C.ar    1  UNL1        0.2612
      3 C           6.3637   42.3031    9.2105 C.ar    1  UNL1        0.1732
      4 C           8.7309   41.8840    9.9384 C.ar    1  UNL1        0.2134
      5 N           7.4246   41.2303   12.2669 N.ar    1  UNL1       -0.1767
      6 N           5.4196   41.8421   11.1043 N.ar    1  UNL1       -0.1079
      7 N           5.1775   42.2392    9.8590 N.ar    1  UNL1       -0.1268
      8 N           7.3763   41.9679   10.0396 N.ar    1  UNL1       -0.2304
      9 N           9.4249   41.4229   11.0152 N.ar    1  UNL1       -0.1815
     10 C           6.4694   42.5851    7.7686 C.ar    1  UNL1        0.0324
     11 C           6.4184   43.9192    7.3449 C.ar    1  UNL1        0.0027
     12 C           6.5045   44.2353    5.9870 C.ar    1  UNL1        0.0001
     13 C           6.6281   43.2172    5.0398 C.ar    1  UNL1       -0.0003
     14 C           6.6534   41.8819    5.4490 C.ar    1  UNL1       -0.0042
     15 C           6.5678   41.5562    6.8064 C.ar    1  UNL1       -0.0189
     16 C           6.5359   40.1142    7.1877 C.3     1  UNL1        0.0311
     17 C          10.2874   40.4520   15.6874 C.3     1  UNL1        0.0950
     18 C           9.4100   41.0429   14.6439 C.2     1  UNL1        0.2287
     19 O           8.5589   41.9114   14.9710 O.2     1  UNL1       -0.2747
     20 N           9.5482   40.6133   13.2850 N.am    1  UNL1       -0.2538
     21 H          10.2312   39.9295   13.0977 H       1  UNL1        0.1577
     22 C          10.0779   41.4053    7.8676 C.2     1  UNL1        0.2287
     23 C          10.9042   41.9400    6.7548 C.3     1  UNL1        0.0950
     24 O           9.9310   40.1604    7.9920 O.2     1  UNL1       -0.2747
     25 N           9.4419   42.3103    8.7729 N.am    1  UNL1       -0.2549
     26 H           9.4959   43.2751    8.5848 H       1  UNL1        0.1577
@<TRIPOS>BOND
     1    17    18    1
     2    18    20   am
     3     1     9   ar
     4     2     5   ar
     5     3     8   ar
     6     3    10    1
     7     4    25    1
     8    23    22    1
     9    11    12   ar
    10    13    14   ar
    11    15    10   ar
    12    16    15    1
    13    20     1    1
    14     6     7   ar
    15     8     4   ar
    16     8     2   ar
    17    25    22   am
    18    18    19    2
    19     1     5   ar
    20     2     6   ar
    21     3     7   ar
    22     4     9   ar
    23    22    24    2
    24    10    11   ar
    25    12    13   ar
    26    14    15   ar
    27    20    21    1
    28    25    26    1
@<TRIPOS>MOLECULE
Molport-051-942-616 CSSS20572399210
 26 28 0 0 0
SMALL
GASTEIGER

@<TRIPOS>ATOM
      1 C          10.5784   41.6832    7.4021 C.ar    1  UNL1        0.2276
      2 C          12.9024   41.8696    7.5119 C.ar    1  UNL1        0.2612
      3 C          14.3019   40.5705    8.3977 C.ar    1  UNL1        0.1732
      4 C          11.8473   40.0797    8.6061 C.ar    1  UNL1        0.2134
      5 N          11.7191   42.3615    7.0787 N.ar    1  UNL1       -0.1767
      6 N          14.1091   42.4022    7.2583 N.ar    1  UNL1       -0.1079
      7 N          14.9915   41.5814    7.8193 N.ar    1  UNL1       -0.1268
      8 N          12.9730   40.7459    8.2300 N.ar    1  UNL1       -0.2304
      9 N          10.6483   40.5518    8.1667 N.ar    1  UNL1       -0.1815
     10 C          14.9610   39.4022    9.0062 C.ar    1  UNL1        0.0324
     11 C          14.3321   38.1546    8.9055 C.ar    1  UNL1        0.0027
     12 C          14.9139   37.0197    9.4753 C.ar    1  UNL1        0.0001
     13 C          16.1238   37.1263   10.1636 C.ar    1  UNL1       -0.0003
     14 C          16.7465   38.3699   10.2929 C.ar    1  UNL1       -0.0042
     15 C          16.1713   39.5115    9.7256 C.ar    1  UNL1       -0.0189
     16 C          16.8423   40.8258    9.9450 C.3     1  UNL1        0.0311
     17 C           6.8846   41.9631    6.2625 C.3     1  UNL1        0.0950
     18 C           8.1483   41.3287    6.7191 C.2     1  UNL1        0.2287
     19 O           8.1892   40.0810    6.8842 O.2     1  UNL1       -0.2747
     20 N           9.2967   42.1482    6.9637 N.am    1  UNL1       -0.2538
     21 H           9.1964   43.1167    6.8176 H       1  UNL1        0.1577
     22 C          10.9725   37.8492    9.3753 C.2     1  UNL1        0.2287
     23 C          10.9946   36.7782   10.4045 C.3     1  UNL1        0.0950
     24 O          10.1664   37.7697    8.4106 O.2     1  UNL1       -0.2747
     25 N          11.8806   38.9481    9.4802 N.am    1  UNL1       -0.2549
     26 H          12.5630   38.9249   10.1895 H       1  UNL1        0.1577
@<TRIPOS>BOND
     1    17    18    1
     2    18    20   am
     3     1     9   ar
     4     2     5   ar
     5     3     8   ar
     6     3    10    1
     7     4    25    1
     8    23    22    1
     9    11    12   ar
    10    13    14   ar
    11    15    10   ar
    12    16    15    1
    13    20     1    1
    14     6     7   ar
    15     8     4   ar
    16     8     2   ar
    17    25    22   am
    18    18    19    2
    19     1     5   ar
    20     2     6   ar
    21     3     7   ar
    22     4     9   ar
    23    22    24    2
    24    10    11   ar
    25    12    13   ar
    26    14    15   ar
    27    20    21    1
    28    25    26    1
@<TRIPOS>MOLECULE
Molport-051-942-616 CSSS20572399210
 26 28 0 0 0
SMALL
GASTEIGER

@<TRIPOS>ATOM
      1 C           9.3508   39.0166    5.5811 C.ar    1  UNL1        0.2276
      2 C           7.8130   40.7377    5.9286 C.ar    1  UNL1        0.2612
      3 C           7.8317   42.2682    7.3738 C.ar    1  UNL1        0.1732
      4 C           9.6223   40.5070    7.4076 C.ar    1  UNL1        0.2134
      5 N           8.2104   39.6671    5.2038 N.ar    1  UNL1       -0.1767
      6 N           6.7343   41.4963    5.6738 N.ar    1  UNL1       -0.1079
      7 N           6.7469   42.4613    6.5879 N.ar    1  UNL1       -0.1268
      8 N           8.5107   41.1676    6.9831 N.ar    1  UNL1       -0.2304
      9 N          10.0457   39.4359    6.6815 N.ar    1  UNL1       -0.1815
     10 C           8.2389   43.2233    8.4187 C.ar    1  UNL1        0.0324
     11 C           9.4070   42.9585    9.1451 C.ar    1  UNL1        0.0027
     12 C           9.8279   43.8299   10.1524 C.ar    1  UNL1        0.0001
     13 C           9.0751   44.9670   10.4513 C.ar    1  UNL1       -0.0003
     14 C           7.8946   45.2270    9.7513 C.ar    1  UNL1       -0.0042
     15 C           7.4656   44.3600    8.7412 C.ar    1  UNL1       -0.0189
     16 C           6.1665   44.6474    8.0661 C.3     1  UNL1        0.0311
     17 C          10.2951   36.4746    2.8121 C.3     1  UNL1        0.0950
     18 C           9.7557   37.7150    3.4272 C.2     1  UNL1        0.2287
     19 O           9.2440   38.5986    2.6902 O.2     1  UNL1       -0.2747
     20 N           9.8282   37.8831    4.8473 N.am    1  UNL1       -0.2538
     21 H          10.2427   37.1554    5.3649 H       1  UNL1        0.1577
     22 C          10.8417   39.9031    9.5243 C.2     1  UNL1        0.2287
     23 C          11.4347   40.3615   10.8070 C.3     1  UNL1        0.0950
     24 O          10.8228   38.6736    9.2508 O.2     1  UNL1       -0.2747
     25 N          10.3175   40.8643    8.6054 N.am    1  UNL1       -0.2549
     26 H          10.4411   41.8200    8.8070 H       1  UNL1        0.1577
@<TRIPOS>BOND
     1    17    18    1
     2    18    20   am
     3     1     9   ar
     4     2     5   ar
     5     3     8   ar
     6     3    10    1
     7     4    25    1
     8    23    22    1
     9    11    12   ar
    10    13    14   ar
    11    15    10   ar
    12    16    15    1
    13    20     1    1
    14     6     7   ar
    15     8     4   ar
    16     8     2   ar
    17    25    22   am
    18    18    19    2
    19     1     5   ar
    20     2     6   ar
    21     3     7   ar
    22     4     9   ar
    23    22    24    2
    24    10    11   ar
    25    12    13   ar
    26    14    15   ar
    27    20    21    1
    28    25    26    1
