@<TRIPOS>MOLECULE
MolPort-020-292-542 MCULE-8860275436 PubChem-110265010
 31 34 0 0 0
SMALL
GASTEIGER

@<TRIPOS>ATOM
      1 C          12.4292   38.3025    8.4404 C.3     1  UNL1        0.0581
      2 C          11.1552   38.0910    9.2586 C.3     1  UNL1        0.0089
      3 C          11.2806   36.8598   10.1602 C.3     1  UNL1        0.0196
      4 C          12.7016   36.6775   10.7075 C.3     1  UNL1        0.0958
      5 C          13.6882   38.3539    9.3246 C.3     1  UNL1        0.1017
      6 N          13.4241   37.9492   10.7107 N.3     1  UNL1       -0.1550
      7 C          10.4035   40.7074    4.6288 C.3     1  UNL1        0.0521
      8 C          11.3528   40.6925    5.7717 C.ar    1  UNL1        0.0602
      9 C          12.1276   41.8200    6.0494 C.ar    1  UNL1        0.0294
     10 C          13.0200   41.7984    7.1291 C.ar    1  UNL1        0.0517
     11 C          13.1160   40.6432    7.9086 C.ar    1  UNL1        0.0294
     12 C          12.3259   39.5323    7.6019 C.ar    1  UNL1        0.0609
     13 N          11.4659   39.5812    6.5465 N.ar    1  UNL1       -0.2539
     14 N          13.8415   42.9259    7.4635 N.pl3   1  UNL1       -0.2979
     15 H          13.4015   43.6550    7.9574 H       1  UNL1        0.1536
     16 C          15.2306   43.1116    7.1603 C.ar    1  UNL1        0.1322
     17 C          16.1881   42.4766    7.9558 C.ar    1  UNL1        0.0344
     18 C          17.5434   42.6503    7.6702 C.ar    1  UNL1        0.0045
     19 C          17.9302   43.4537    6.5967 C.ar    1  UNL1        0.0208
     20 C          16.9478   44.0736    5.8224 C.ar    1  UNL1        0.1003
     21 N          15.6323   43.8916    6.1172 N.ar    1  UNL1       -0.2291
     22 S          14.9548   37.6920   11.4868 S.O2    1  UNL1        0.0672
     23 O          15.2880   38.8825   12.3420 O.2     1  UNL1       -0.1526
     24 O          14.8688   36.4828   12.3757 O.2     1  UNL1       -0.1526
     25 C          16.2360   37.4524   10.2967 C.ar    1  UNL1        0.1715
     26 C          17.3620   38.2214   10.0951 C.ar    1  UNL1        0.1729
     27 C          16.3284   36.4714    9.3318 C.ar    1  UNL1        0.1192
     28 C          15.3583   35.3701    9.0835 C.3     1  UNL1        0.0571
     29 C          17.7695   39.4345   10.8556 C.3     1  UNL1        0.0768
     30 N          17.4507   36.6570    8.6105 N.ar    1  UNL1       -0.0803
     31 O          18.0433   37.7116    9.0952 O.2     1  UNL1       -0.3567
@<TRIPOS>BOND
     1     7     8    1
     2     8    13   ar
     3     9    10   ar
     4    10    14    1
     5    11    12   ar
     6     1    12    1
     7     1     2    1
     8     2     3    1
     9     3     4    1
    10     4     6    1
    11     5     6    1
    12     5     1    1
    13    26    31   ar
    14    27    25   ar
    15    28    27    1
    16    29    26    1
    17    16    21   ar
    18    17    18   ar
    19    19    20   ar
    20    14    16    1
    21    22     6    1
    22    22    25    1
    23    31    30   ar
    24     8     9   ar
    25    10    11   ar
    26    12    13   ar
    27    25    26   ar
    28    27    30   ar
    29    16    17   ar
    30    18    19   ar
    31    20    21   ar
    32    22    23    2
    33    22    24    2
    34    14    15    1
@<TRIPOS>MOLECULE
MolPort-020-292-542 MCULE-8860275436 PubChem-110265010
 31 34 0 0 0
SMALL
GASTEIGER

@<TRIPOS>ATOM
      1 C          12.2526   39.3196    9.1575 C.3     1  UNL1        0.0581
      2 C          12.2346   40.4225   10.2161 C.3     1  UNL1        0.0089
      3 C          12.6203   39.8694   11.5907 C.3     1  UNL1        0.0196
      4 C          13.6877   38.7719   11.5015 C.3     1  UNL1        0.0958
      5 C          13.5929   38.5635    9.1259 C.3     1  UNL1        0.1017
      6 N          14.4580   38.8958   10.2644 N.3     1  UNL1       -0.1550
      7 C           9.7306   39.0119    4.9194 C.3     1  UNL1        0.0521
      8 C          10.7160   39.7267    5.7713 C.ar    1  UNL1        0.0602
      9 C          11.3191   40.8971    5.3076 C.ar    1  UNL1        0.0294
     10 C          12.2469   41.5658    6.1169 C.ar    1  UNL1        0.0517
     11 C          12.5502   41.0442    7.3768 C.ar    1  UNL1        0.0294
     12 C          11.9283   39.8700    7.8091 C.ar    1  UNL1        0.0609
     13 N          11.0293   39.2409    7.0017 N.ar    1  UNL1       -0.2539
     14 N          12.8984   42.7722    5.6952 N.pl3   1  UNL1       -0.2979
     15 H          12.4234   43.3126    5.0233 H       1  UNL1        0.1536
     16 C          14.1628   43.2806    6.1411 C.ar    1  UNL1        0.1322
     17 C          14.9330   42.5085    7.0151 C.ar    1  UNL1        0.0344
     18 C          16.1655   42.9933    7.4560 C.ar    1  UNL1        0.0045
     19 C          16.6173   44.2404    7.0224 C.ar    1  UNL1        0.0208
     20 C          15.8229   44.9860    6.1495 C.ar    1  UNL1        0.1003
     21 N          14.6248   44.4957    5.7315 N.ar    1  UNL1       -0.2291
     22 S          15.7392   37.7264   10.3134 S.O2    1  UNL1        0.0672
     23 O          16.9575   38.2909    9.6373 O.2     1  UNL1       -0.1526
     24 O          16.0905   37.4278   11.7442 O.2     1  UNL1       -0.1526
     25 C          15.2638   36.2316    9.5043 C.ar    1  UNL1        0.1715
     26 C          14.1437   35.4616    9.7332 C.ar    1  UNL1        0.1729
     27 C          15.9412   35.5451    8.5185 C.ar    1  UNL1        0.1192
     28 C          17.2395   35.9254    7.8978 C.3     1  UNL1        0.0571
     29 C          13.0562   35.7269   10.7145 C.3     1  UNL1        0.0768
     30 N          15.2497   34.4375    8.1880 N.ar    1  UNL1       -0.0803
     31 O          14.1811   34.4207    8.9339 O.2     1  UNL1       -0.3567
@<TRIPOS>BOND
     1     7     8    1
     2     8    13   ar
     3     9    10   ar
     4    10    14    1
     5    11    12   ar
     6     1    12    1
     7     1     2    1
     8     2     3    1
     9     3     4    1
    10     4     6    1
    11     5     6    1
    12     5     1    1
    13    26    31   ar
    14    27    25   ar
    15    28    27    1
    16    29    26    1
    17    16    21   ar
    18    17    18   ar
    19    19    20   ar
    20    14    16    1
    21    22     6    1
    22    22    25    1
    23    31    30   ar
    24     8     9   ar
    25    10    11   ar
    26    12    13   ar
    27    25    26   ar
    28    27    30   ar
    29    16    17   ar
    30    18    19   ar
    31    20    21   ar
    32    22    23    2
    33    22    24    2
    34    14    15    1
@<TRIPOS>MOLECULE
MolPort-020-292-542 MCULE-8860275436 PubChem-110265010
 31 34 0 0 0
SMALL
GASTEIGER

@<TRIPOS>ATOM
      1 C          10.0343   41.9320   10.4792 C.3     1  UNL1        0.0581
      2 C           9.4292   41.2464   11.7044 C.3     1  UNL1        0.0089
      3 C           8.0322   41.7958   12.0060 C.3     1  UNL1        0.0196
      4 C           7.2510   42.1399   10.7320 C.3     1  UNL1        0.0958
      5 C           9.1046   41.8639    9.2543 C.3     1  UNL1        0.1017
      6 N           7.7596   41.3809    9.5899 N.3     1  UNL1       -0.1550
      7 C          13.7888   38.9394   11.6471 C.3     1  UNL1        0.0521
      8 C          13.1790   39.9196   10.7117 C.ar    1  UNL1        0.0602
      9 C          13.8564   40.2872    9.5478 C.ar    1  UNL1        0.0294
     10 C          13.2746   41.2116    8.6704 C.ar    1  UNL1        0.0517
     11 C          12.0229   41.7485    8.9808 C.ar    1  UNL1        0.0294
     12 C          11.3731   41.3588   10.1548 C.ar    1  UNL1        0.0609
     13 N          11.9617   40.4574   10.9895 N.ar    1  UNL1       -0.2539
     14 N          13.9220   41.6273    7.4597 N.pl3   1  UNL1       -0.2979
     15 H          13.5226   41.3063    6.6191 H       1  UNL1        0.1536
     16 C          15.0847   42.4571    7.3345 C.ar    1  UNL1        0.1322
     17 C          16.2219   42.1471    8.0854 C.ar    1  UNL1        0.0344
     18 C          17.3595   42.9479    7.9719 C.ar    1  UNL1        0.0045
     19 C          17.3526   44.0476    7.1129 C.ar    1  UNL1        0.0208
     20 C          16.1998   44.3291    6.3774 C.ar    1  UNL1        0.1003
     21 N          15.1015   43.5364    6.5023 N.ar    1  UNL1       -0.2291
     22 S           6.7283   41.7037    8.2321 S.O2    1  UNL1        0.0672
     23 O           7.4576   42.5728    7.2458 O.2     1  UNL1       -0.1526
     24 O           6.3775   40.4104    7.5508 O.2     1  UNL1       -0.1526
     25 C           5.2467   42.5166    8.7411 C.ar    1  UNL1        0.1715
     26 C           4.2065   41.9994    9.4828 C.ar    1  UNL1        0.1729
     27 C           4.8455   43.8065    8.4633 C.ar    1  UNL1        0.1192
     28 C           5.5912   44.8215    7.6699 C.3     1  UNL1        0.0571
     29 C           4.1009   40.6257   10.0465 C.3     1  UNL1        0.0768
     30 N           3.6384   44.0294    9.0179 N.ar    1  UNL1       -0.0803
     31 O           3.2880   42.9276    9.6193 O.2     1  UNL1       -0.3567
@<TRIPOS>BOND
     1     7     8    1
     2     8    13   ar
     3     9    10   ar
     4    10    14    1
     5    11    12   ar
     6     1    12    1
     7     1     2    1
     8     2     3    1
     9     3     4    1
    10     4     6    1
    11     5     6    1
    12     5     1    1
    13    26    31   ar
    14    27    25   ar
    15    28    27    1
    16    29    26    1
    17    16    21   ar
    18    17    18   ar
    19    19    20   ar
    20    14    16    1
    21    22     6    1
    22    22    25    1
    23    31    30   ar
    24     8     9   ar
    25    10    11   ar
    26    12    13   ar
    27    25    26   ar
    28    27    30   ar
    29    16    17   ar
    30    18    19   ar
    31    20    21   ar
    32    22    23    2
    33    22    24    2
    34    14    15    1
@<TRIPOS>MOLECULE
MolPort-020-292-542 MCULE-8860275436 PubChem-110265010
 31 34 0 0 0
SMALL
GASTEIGER

@<TRIPOS>ATOM
      1 C           9.9848   41.9580   10.4698 C.3     1  UNL1        0.0581
      2 C           9.3757   41.2852   11.7001 C.3     1  UNL1        0.0089
      3 C           7.9807   41.8430   11.9957 C.3     1  UNL1        0.0196
      4 C           7.2022   42.1797   10.7181 C.3     1  UNL1        0.0958
      5 C           9.0560   41.8835    9.2446 C.3     1  UNL1        0.1017
      6 N           7.7087   41.4091    9.5829 N.3     1  UNL1       -0.1550
      7 C          13.7235   38.9560   11.6642 C.3     1  UNL1        0.0521
      8 C          13.1198   39.9327   10.7212 C.ar    1  UNL1        0.0602
      9 C          13.8008   40.2893    9.5559 C.ar    1  UNL1        0.0294
     10 C          13.2248   41.2104    8.6714 C.ar    1  UNL1        0.0517
     11 C          11.9750   41.7552    8.9760 C.ar    1  UNL1        0.0294
     12 C          11.3215   41.3765   10.1515 C.ar    1  UNL1        0.0609
     13 N          11.9046   40.4780   10.9933 N.ar    1  UNL1       -0.2539
     14 N          13.8761   41.6149    7.4590 N.pl3   1  UNL1       -0.2979
     15 H          13.4827   41.2815    6.6203 H       1  UNL1        0.1536
     16 C          15.0348   42.4496    7.3296 C.ar    1  UNL1        0.1322
     17 C          16.1697   42.1553    8.0901 C.ar    1  UNL1        0.0344
     18 C          17.3034   42.9610    7.9726 C.ar    1  UNL1        0.0045
     19 C          17.2949   44.0500    7.1000 C.ar    1  UNL1        0.0208
     20 C          16.1445   44.3159    6.3551 C.ar    1  UNL1        0.1003
     21 N          15.0499   43.5186    6.4841 N.ar    1  UNL1       -0.2291
     22 S           6.6801   41.7248    8.2214 S.O2    1  UNL1        0.0672
     23 O           7.3966   42.6215    7.2507 O.2     1  UNL1       -0.1526
     24 O           6.3631   40.4321    7.5226 O.2     1  UNL1       -0.1526
     25 C           5.1771   42.4984    8.7290 C.ar    1  UNL1        0.1715
     26 C           4.7665   43.7927    8.4923 C.ar    1  UNL1        0.1729
     27 C           4.1543   41.9593    9.4809 C.ar    1  UNL1        0.1192
     28 C           4.0834   40.5777   10.0301 C.3     1  UNL1        0.0571
     29 C           5.4973   44.8420    7.7301 C.3     1  UNL1        0.0768
     30 N           3.1976   42.8889    9.6677 N.ar    1  UNL1       -0.0803
     31 O           3.5974   43.9717    9.0625 O.2     1  UNL1       -0.3567
@<TRIPOS>BOND
     1     7     8    1
     2     8    13   ar
     3     9    10   ar
     4    10    14    1
     5    11    12   ar
     6     1    12    1
     7     1     2    1
     8     2     3    1
     9     3     4    1
    10     4     6    1
    11     5     6    1
    12     5     1    1
    13    26    31   ar
    14    27    25   ar
    15    28    27    1
    16    29    26    1
    17    16    21   ar
    18    17    18   ar
    19    19    20   ar
    20    14    16    1
    21    22     6    1
    22    22    25    1
    23    31    30   ar
    24     8     9   ar
    25    10    11   ar
    26    12    13   ar
    27    25    26   ar
    28    27    30   ar
    29    16    17   ar
    30    18    19   ar
    31    20    21   ar
    32    22    23    2
    33    22    24    2
    34    14    15    1
@<TRIPOS>MOLECULE
MolPort-020-292-542 MCULE-8860275436 PubChem-110265010
 31 34 0 0 0
SMALL
GASTEIGER

@<TRIPOS>ATOM
      1 C          12.0219   39.2667    9.5314 C.3     1  UNL1        0.0581
      2 C          12.6752   40.1883   10.5615 C.3     1  UNL1        0.0089
      3 C          13.3437   39.3785   11.6758 C.3     1  UNL1        0.0196
      4 C          13.9681   38.0766   11.1592 C.3     1  UNL1        0.0958
      5 C          13.0052   38.2186    8.9801 C.3     1  UNL1        0.1017
      6 N          14.2660   38.1745    9.7306 N.3     1  UNL1       -0.1550
      7 C           8.0190   40.7672    7.0532 C.3     1  UNL1        0.0521
      8 C           9.4946   40.7807    7.2262 C.ar    1  UNL1        0.0602
      9 C          10.2918   41.5277    6.3571 C.ar    1  UNL1        0.0294
     10 C          11.6824   41.5358    6.5270 C.ar    1  UNL1        0.0517
     11 C          12.2444   40.7924    7.5677 C.ar    1  UNL1        0.0294
     12 C          11.4168   40.0554    8.4188 C.ar    1  UNL1        0.0609
     13 N          10.0675   40.0662    8.2309 N.ar    1  UNL1       -0.2539
     14 N          12.5525   42.2841    5.6664 N.pl3   1  UNL1       -0.2979
     15 H          12.3174   42.2945    4.7105 H       1  UNL1        0.1536
     16 C          13.7259   43.0188    6.0401 C.ar    1  UNL1        0.1322
     17 C          14.6718   42.4084    6.8683 C.ar    1  UNL1        0.0344
     18 C          15.8178   43.1140    7.2388 C.ar    1  UNL1        0.0045
     19 C          16.0094   44.4183    6.7811 C.ar    1  UNL1        0.0208
     20 C          15.0447   44.9981    5.9552 C.ar    1  UNL1        0.1003
     21 N          13.9347   44.2937    5.6057 N.ar    1  UNL1       -0.2291
     22 S          15.1102   36.7329    9.2609 S.O2    1  UNL1        0.0672
     23 O          14.6052   35.5714   10.0707 O.2     1  UNL1       -0.1526
     24 O          14.8434   36.4464    7.8095 O.2     1  UNL1       -0.1526
     25 C          16.8485   36.9065    9.5123 C.ar    1  UNL1        0.1715
     26 C          17.5295   37.9959   10.0116 C.ar    1  UNL1        0.1729
     27 C          17.8447   35.9967    9.2260 C.ar    1  UNL1        0.1192
     28 C          17.6714   34.6379    8.6436 C.3     1  UNL1        0.0571
     29 C          16.9463   39.2846   10.4755 C.3     1  UNL1        0.0768
     30 N          19.0409   36.5267    9.5463 N.ar    1  UNL1       -0.0803
     31 O          18.8136   37.7220   10.0130 O.2     1  UNL1       -0.3567
@<TRIPOS>BOND
     1     7     8    1
     2     8    13   ar
     3     9    10   ar
     4    10    14    1
     5    11    12   ar
     6     1    12    1
     7     1     2    1
     8     2     3    1
     9     3     4    1
    10     4     6    1
    11     5     6    1
    12     5     1    1
    13    26    31   ar
    14    27    25   ar
    15    28    27    1
    16    29    26    1
    17    16    21   ar
    18    17    18   ar
    19    19    20   ar
    20    14    16    1
    21    22     6    1
    22    22    25    1
    23    31    30   ar
    24     8     9   ar
    25    10    11   ar
    26    12    13   ar
    27    25    26   ar
    28    27    30   ar
    29    16    17   ar
    30    18    19   ar
    31    20    21   ar
    32    22    23    2
    33    22    24    2
    34    14    15    1
@<TRIPOS>MOLECULE
MolPort-020-292-542 MCULE-8860275436 PubChem-110265010
 31 34 0 0 0
SMALL
GASTEIGER

@<TRIPOS>ATOM
      1 C           9.6314   40.0786    7.9146 C.3     1  UNL1        0.0581
      2 C           9.3856   40.5640    6.4859 C.3     1  UNL1        0.0089
      3 C           7.9268   40.3445    6.0756 C.3     1  UNL1        0.0196
      4 C           6.9529   40.5548    7.2415 C.3     1  UNL1        0.0958
      5 C           8.6441   40.6991    8.9193 C.3     1  UNL1        0.1017
      6 N           7.5448   41.4176    8.2635 N.3     1  UNL1       -0.1550
      7 C          13.2523   39.6047   11.2434 C.3     1  UNL1        0.0521
      8 C          12.7835   40.1138    9.9286 C.ar    1  UNL1        0.0602
      9 C          13.6584   40.8220    9.1030 C.ar    1  UNL1        0.0294
     10 C          13.2091   41.2984    7.8644 C.ar    1  UNL1        0.0517
     11 C          11.8886   41.0532    7.4803 C.ar    1  UNL1        0.0294
     12 C          11.0396   40.3414    8.3317 C.ar    1  UNL1        0.0609
     13 N          11.5033   39.8892    9.5302 N.ar    1  UNL1       -0.2539
     14 N          14.0614   42.0316    6.9734 N.pl3   1  UNL1       -0.2979
     15 H          13.7284   42.1565    6.0554 H       1  UNL1        0.1536
     16 C          15.3430   42.6032    7.2678 C.ar    1  UNL1        0.1322
     17 C          16.1451   42.0020    8.2415 C.ar    1  UNL1        0.0344
     18 C          17.3946   42.5499    8.5367 C.ar    1  UNL1        0.0045
     19 C          17.8315   43.6892    7.8597 C.ar    1  UNL1        0.0208
     20 C          17.0051   44.2648    6.8928 C.ar    1  UNL1        0.1003
     21 N          15.7909   43.7156    6.6199 N.ar    1  UNL1       -0.2291
     22 S           6.3313   41.7351    9.4627 S.O2    1  UNL1        0.0672
     23 O           5.4842   40.5080    9.6538 O.2     1  UNL1       -0.1526
     24 O           6.9940   42.0586   10.7726 O.2     1  UNL1       -0.1526
     25 C           5.3014   43.0846    8.9799 C.ar    1  UNL1        0.1715
     26 C           5.6691   44.2425    8.3287 C.ar    1  UNL1        0.1729
     27 C           3.9479   43.2410    9.1936 C.ar    1  UNL1        0.1192
     28 C           3.0366   42.2843    9.8791 C.3     1  UNL1        0.0571
     29 C           7.0322   44.6168    7.8620 C.3     1  UNL1        0.0768
     30 N           3.5486   44.4244    8.6894 N.ar    1  UNL1       -0.0803
     31 O           4.6037   44.9953    8.1802 O.2     1  UNL1       -0.3567
@<TRIPOS>BOND
     1     7     8    1
     2     8    13   ar
     3     9    10   ar
     4    10    14    1
     5    11    12   ar
     6     1    12    1
     7     1     2    1
     8     2     3    1
     9     3     4    1
    10     4     6    1
    11     5     6    1
    12     5     1    1
    13    26    31   ar
    14    27    25   ar
    15    28    27    1
    16    29    26    1
    17    16    21   ar
    18    17    18   ar
    19    19    20   ar
    20    14    16    1
    21    22     6    1
    22    22    25    1
    23    31    30   ar
    24     8     9   ar
    25    10    11   ar
    26    12    13   ar
    27    25    26   ar
    28    27    30   ar
    29    16    17   ar
    30    18    19   ar
    31    20    21   ar
    32    22    23    2
    33    22    24    2
    34    14    15    1
@<TRIPOS>MOLECULE
MolPort-020-292-542 MCULE-8860275436 PubChem-110265010
 31 34 0 0 0
SMALL
GASTEIGER

@<TRIPOS>ATOM
      1 C           9.7919   41.9642   10.8195 C.3     1  UNL1        0.0581
      2 C           9.4695   41.0901   12.0317 C.3     1  UNL1        0.0089
      3 C           8.1259   41.4851   12.6507 C.3     1  UNL1        0.0196
      4 C           7.0995   41.9156   11.5957 C.3     1  UNL1        0.0958
      5 C           8.6526   41.9689    9.7845 C.3     1  UNL1        0.1017
      6 N           7.4251   41.3425   10.2901 N.3     1  UNL1       -0.1550
      7 C          13.9346   39.2742   10.9547 C.3     1  UNL1        0.0521
      8 C          13.0671   40.2503   10.2459 C.ar    1  UNL1        0.0602
      9 C          13.4558   40.7555    9.0040 C.ar    1  UNL1        0.0294
     10 C          12.6322   41.6751    8.3417 C.ar    1  UNL1        0.0517
     11 C          11.4334   42.0688    8.9413 C.ar    1  UNL1        0.0294
     12 C          11.0754   41.5436   10.1856 C.ar    1  UNL1        0.0609
     13 N          11.8951   40.6503   10.8069 N.ar    1  UNL1       -0.2539
     14 N          12.9781   42.2282    7.0641 N.pl3   1  UNL1       -0.2979
     15 H          12.3801   42.0034    6.3151 H       1  UNL1        0.1536
     16 C          14.0958   43.0713    6.7540 C.ar    1  UNL1        0.1322
     17 C          15.3590   42.7283    7.2436 C.ar    1  UNL1        0.0344
     18 C          16.4544   43.5417    6.9483 C.ar    1  UNL1        0.0045
     19 C          16.2802   44.6864    6.1695 C.ar    1  UNL1        0.0208
     20 C          15.0046   45.0000    5.6966 C.ar    1  UNL1        0.1003
     21 N          13.9501   44.1943    5.9956 N.ar    1  UNL1       -0.2291
     22 S           6.1388   41.7418    9.1957 S.O2    1  UNL1        0.0672
     23 O           5.0710   40.6865    9.2730 O.2     1  UNL1       -0.1526
     24 O           5.5308   43.0572    9.5958 O.2     1  UNL1       -0.1526
     25 C           6.7302   41.8521    7.5364 C.ar    1  UNL1        0.1715
     26 C           6.7416   42.9557    6.7108 C.ar    1  UNL1        0.1729
     27 C           7.2593   40.8477    6.7532 C.ar    1  UNL1        0.1192
     28 C           7.4649   39.4262    7.1440 C.3     1  UNL1        0.0571
     29 C           6.2684   44.3284    7.0392 C.3     1  UNL1        0.0768
     30 N           7.5666   41.3418    5.5384 N.ar    1  UNL1       -0.0803
     31 O           7.2439   42.6044    5.5497 O.2     1  UNL1       -0.3567
@<TRIPOS>BOND
     1     7     8    1
     2     8    13   ar
     3     9    10   ar
     4    10    14    1
     5    11    12   ar
     6     1    12    1
     7     1     2    1
     8     2     3    1
     9     3     4    1
    10     4     6    1
    11     5     6    1
    12     5     1    1
    13    26    31   ar
    14    27    25   ar
    15    28    27    1
    16    29    26    1
    17    16    21   ar
    18    17    18   ar
    19    19    20   ar
    20    14    16    1
    21    22     6    1
    22    22    25    1
    23    31    30   ar
    24     8     9   ar
    25    10    11   ar
    26    12    13   ar
    27    25    26   ar
    28    27    30   ar
    29    16    17   ar
    30    18    19   ar
    31    20    21   ar
    32    22    23    2
    33    22    24    2
    34    14    15    1
@<TRIPOS>MOLECULE
MolPort-020-292-542 MCULE-8860275436 PubChem-110265010
 31 34 0 0 0
SMALL
GASTEIGER

@<TRIPOS>ATOM
      1 C          11.4755   40.5938    6.5676 C.3     1  UNL1        0.0581
      2 C          11.0609   40.7259    5.1020 C.3     1  UNL1        0.0089
      3 C           9.7043   40.0608    4.8538 C.3     1  UNL1        0.0196
      4 C           8.7481   40.2203    6.0420 C.3     1  UNL1        0.0958
      5 C          10.3895   41.1087    7.5294 C.3     1  UNL1        0.1017
      6 N           9.1158   41.3810    6.8524 N.3     1  UNL1       -0.1550
      7 C          14.5999   44.2880    5.5645 C.3     1  UNL1        0.0521
      8 C          14.2756   43.0638    6.3415 C.ar    1  UNL1        0.0602
      9 C          15.1765   42.5829    7.2932 C.ar    1  UNL1        0.0294
     10 C          14.8634   41.4283    8.0222 C.ar    1  UNL1        0.0517
     11 C          13.6501   40.7796    7.7799 C.ar    1  UNL1        0.0294
     12 C          12.7719   41.2880    6.8193 C.ar    1  UNL1        0.0609
     13 N          13.1017   42.4131    6.1256 N.ar    1  UNL1       -0.2539
     14 N          15.7485   40.8872    9.0130 N.pl3   1  UNL1       -0.2979
     15 H          16.6607   41.2570    9.0316 H       1  UNL1        0.1536
     16 C          15.4557   39.8690    9.9792 C.ar    1  UNL1        0.1322
     17 C          16.3909   38.8537   10.1976 C.ar    1  UNL1        0.0344
     18 C          16.1166   37.8570   11.1356 C.ar    1  UNL1        0.0045
     19 C          14.9154   37.8820   11.8453 C.ar    1  UNL1        0.0208
     20 C          14.0031   38.9105   11.6026 C.ar    1  UNL1        0.1003
     21 N          14.2893   39.8724   10.6843 N.ar    1  UNL1       -0.2291
     22 S           7.9011   41.5856    8.0747 S.O2    1  UNL1        0.0672
     23 O           6.5582   41.2105    7.5127 O.2     1  UNL1       -0.1526
     24 O           8.1977   40.6749    9.2333 O.2     1  UNL1       -0.1526
     25 C           7.8491   43.2558    8.6428 C.ar    1  UNL1        0.1715
     26 C           8.7004   43.8774    9.5309 C.ar    1  UNL1        0.1729
     27 C           6.9296   44.2339    8.3265 C.ar    1  UNL1        0.1192
     28 C           5.7644   44.1001    7.4100 C.3     1  UNL1        0.0571
     29 C           9.8836   43.2804   10.2089 C.3     1  UNL1        0.0768
     30 N           7.2328   45.3655    8.9913 N.ar    1  UNL1       -0.0803
     31 O           8.2970   45.1152    9.7007 O.2     1  UNL1       -0.3567
@<TRIPOS>BOND
     1     7     8    1
     2     8    13   ar
     3     9    10   ar
     4    10    14    1
     5    11    12   ar
     6     1    12    1
     7     1     2    1
     8     2     3    1
     9     3     4    1
    10     4     6    1
    11     5     6    1
    12     5     1    1
    13    26    31   ar
    14    27    25   ar
    15    28    27    1
    16    29    26    1
    17    16    21   ar
    18    17    18   ar
    19    19    20   ar
    20    14    16    1
    21    22     6    1
    22    22    25    1
    23    31    30   ar
    24     8     9   ar
    25    10    11   ar
    26    12    13   ar
    27    25    26   ar
    28    27    30   ar
    29    16    17   ar
    30    18    19   ar
    31    20    21   ar
    32    22    23    2
    33    22    24    2
    34    14    15    1
@<TRIPOS>MOLECULE
MolPort-020-292-542 MCULE-8860275436 PubChem-110265010
 31 34 0 0 0
SMALL
GASTEIGER

@<TRIPOS>ATOM
      1 C           9.6300   42.2007    9.0932 C.3     1  UNL1        0.0581
      2 C           9.8046   41.6285   10.5001 C.3     1  UNL1        0.0089
      3 C           8.6440   42.0431   11.4087 C.3     1  UNL1        0.0196
      4 C           7.3076   42.1061   10.6591 C.3     1  UNL1        0.0958
      5 C           8.2602   41.8478    8.4861 C.3     1  UNL1        0.1017
      6 N           7.3403   41.2593    9.4670 N.3     1  UNL1       -0.1550
      7 C          11.1262   40.4573    4.7186 C.3     1  UNL1        0.0521
      8 C          11.4571   40.9165    6.0924 C.ar    1  UNL1        0.0602
      9 C          12.7850   40.9280    6.5228 C.ar    1  UNL1        0.0294
     10 C          13.0891   41.3629    7.8194 C.ar    1  UNL1        0.0517
     11 C          12.0517   41.7777    8.6580 C.ar    1  UNL1        0.0294
     12 C          10.7337   41.7525    8.1949 C.ar    1  UNL1        0.0609
     13 N          10.4668   41.3255    6.9291 N.ar    1  UNL1       -0.2539
     14 N          14.4339   41.3976    8.3175 N.pl3   1  UNL1       -0.2979
     15 H          14.6633   40.7271    9.0010 H       1  UNL1        0.1536
     16 C          15.4819   42.2976    7.9333 C.ar    1  UNL1        0.1322
     17 C          16.7590   42.1193    8.4721 C.ar    1  UNL1        0.0344
     18 C          17.7870   42.9896    8.1056 C.ar    1  UNL1        0.0045
     19 C          17.5326   44.0268    7.2074 C.ar    1  UNL1        0.0208
     20 C          16.2453   44.1766    6.6881 C.ar    1  UNL1        0.1003
     21 N          15.2572   43.3179    7.0580 N.ar    1  UNL1       -0.2291
     22 S           5.7519   41.2593    8.7680 S.O2    1  UNL1        0.0672
     23 O           5.7979   40.5910    7.4223 O.2     1  UNL1       -0.1526
     24 O           4.8166   40.4794    9.6494 O.2     1  UNL1       -0.1526
     25 C           5.1423   42.9050    8.5808 C.ar    1  UNL1        0.1715
     26 C           4.1132   43.5124    9.2678 C.ar    1  UNL1        0.1729
     27 C           5.5630   43.8723    7.6923 C.ar    1  UNL1        0.1192
     28 C           6.6519   43.7458    6.6854 C.3     1  UNL1        0.0571
     29 C           3.2819   42.9184   10.3504 C.3     1  UNL1        0.0768
     30 N           4.8215   44.9847    7.8569 N.ar    1  UNL1       -0.0803
     31 O           3.9657   44.7330    8.8070 O.2     1  UNL1       -0.3567
@<TRIPOS>BOND
     1     7     8    1
     2     8    13   ar
     3     9    10   ar
     4    10    14    1
     5    11    12   ar
     6     1    12    1
     7     1     2    1
     8     2     3    1
     9     3     4    1
    10     4     6    1
    11     5     6    1
    12     5     1    1
    13    26    31   ar
    14    27    25   ar
    15    28    27    1
    16    29    26    1
    17    16    21   ar
    18    17    18   ar
    19    19    20   ar
    20    14    16    1
    21    22     6    1
    22    22    25    1
    23    31    30   ar
    24     8     9   ar
    25    10    11   ar
    26    12    13   ar
    27    25    26   ar
    28    27    30   ar
    29    16    17   ar
    30    18    19   ar
    31    20    21   ar
    32    22    23    2
    33    22    24    2
    34    14    15    1
@<TRIPOS>MOLECULE
MolPort-020-292-542 MCULE-8860275436 PubChem-110265010
 31 34 0 0 0
SMALL
GASTEIGER

@<TRIPOS>ATOM
      1 C          12.3322   38.5626    8.4204 C.3     1  UNL1        0.0581
      2 C          11.0419   38.2904    9.1939 C.3     1  UNL1        0.0089
      3 C          11.1419   36.9828    9.9843 C.3     1  UNL1        0.0196
      4 C          12.5512   36.7399   10.5380 C.3     1  UNL1        0.0958
      5 C          13.5751   38.5239    9.3276 C.3     1  UNL1        0.1017
      6 N          13.2828   37.9998   10.6673 N.3     1  UNL1       -0.1550
      7 C          14.5120   42.7094    6.8495 C.3     1  UNL1        0.0521
      8 C          13.2983   41.8567    6.9343 C.ar    1  UNL1        0.0602
      9 C          12.1091   42.2747    6.3344 C.ar    1  UNL1        0.0294
     10 C          10.9690   41.4649    6.4183 C.ar    1  UNL1        0.0517
     11 C          11.0470   40.2502    7.1038 C.ar    1  UNL1        0.0294
     12 C          12.2533   39.8629    7.6931 C.ar    1  UNL1        0.0609
     13 N          13.3466   40.6698    7.5954 N.ar    1  UNL1       -0.2539
     14 N           9.7197   41.8408    5.8219 N.pl3   1  UNL1       -0.2979
     15 H           9.6401   41.7006    4.8507 H       1  UNL1        0.1536
     16 C           8.5735   42.3977    6.4795 C.ar    1  UNL1        0.1322
     17 C           8.5578   42.4605    7.8755 C.ar    1  UNL1        0.0344
     18 C           7.4472   43.0003    8.5265 C.ar    1  UNL1        0.0045
     19 C           6.3655   43.4712    7.7812 C.ar    1  UNL1        0.0208
     20 C           6.4138   43.3933    6.3882 C.ar    1  UNL1        0.1003
     21 N           7.5052   42.8637    5.7728 N.ar    1  UNL1       -0.2291
     22 S          14.7971   37.6610   11.4441 S.O2    1  UNL1        0.0672
     23 O          15.1796   38.8204   12.3212 O.2     1  UNL1       -0.1526
     24 O          14.6535   36.4416   12.3115 O.2     1  UNL1       -0.1526
     25 C          16.0715   37.3850   10.2546 C.ar    1  UNL1        0.1715
     26 C          17.2249   38.1144   10.0614 C.ar    1  UNL1        0.1729
     27 C          16.1305   36.4092    9.2817 C.ar    1  UNL1        0.1192
     28 C          15.1218   35.3457    9.0225 C.3     1  UNL1        0.0571
     29 C          17.6744   39.3057   10.8327 C.3     1  UNL1        0.0768
     30 N          17.2603   36.5599    8.5641 N.ar    1  UNL1       -0.0803
     31 O          17.8896   37.5885    9.0587 O.2     1  UNL1       -0.3567
@<TRIPOS>BOND
     1     7     8    1
     2     8    13   ar
     3     9    10   ar
     4    10    14    1
     5    11    12   ar
     6     1    12    1
     7     1     2    1
     8     2     3    1
     9     3     4    1
    10     4     6    1
    11     5     6    1
    12     5     1    1
    13    26    31   ar
    14    27    25   ar
    15    28    27    1
    16    29    26    1
    17    16    21   ar
    18    17    18   ar
    19    19    20   ar
    20    14    16    1
    21    22     6    1
    22    22    25    1
    23    31    30   ar
    24     8     9   ar
    25    10    11   ar
    26    12    13   ar
    27    25    26   ar
    28    27    30   ar
    29    16    17   ar
    30    18    19   ar
    31    20    21   ar
    32    22    23    2
    33    22    24    2
    34    14    15    1
