@<TRIPOS>MOLECULE
MolPort-020-292-467 MCULE-8174521789 PubChem-110264935
 33 36 0 0 0
SMALL
GASTEIGER

@<TRIPOS>ATOM
      1 C          12.1482   39.3058   10.3689 C.3     1  UNL1        0.0563
      2 C          13.4575   39.7614   11.0102 C.3     1  UNL1        0.0087
      3 C          13.9604   38.7066   11.9878 C.3     1  UNL1        0.0178
      4 C          14.0990   37.3698   11.2667 C.3     1  UNL1        0.0725
      5 C          12.3248   37.9293    9.7270 C.3     1  UNL1        0.0784
      6 N          12.8042   36.9582   10.7158 N.3     1  UNL1       -0.2647
      7 C          12.1462   41.5867    7.3532 C.ar    1  UNL1        0.0517
      8 C          12.5623   40.6580    8.3103 C.ar    1  UNL1        0.0294
      9 C          11.6986   40.2977    9.3479 C.ar    1  UNL1        0.0608
     10 C          10.0266   41.7590    8.5031 C.ar    1  UNL1        0.0602
     11 C          10.8638   42.1415    7.4537 C.ar    1  UNL1        0.0294
     12 C           8.6651   42.3428    8.6178 C.3     1  UNL1        0.0521
     13 N          10.4564   40.8529    9.4206 N.ar    1  UNL1       -0.2539
     14 N          13.0510   41.9404    6.2977 N.pl3   1  UNL1       -0.2981
     15 H          12.9879   41.4063    5.4730 H       1  UNL1        0.1536
     16 C          15.4016   41.6538    7.9641 C.3     1  UNL1        0.0340
     17 C          15.1831   42.8550    7.1096 C.ar    1  UNL1        0.0099
     18 C          14.0387   42.9838    6.3048 C.ar    1  UNL1        0.1281
     19 C          14.8030   45.1026    5.5291 C.ar    1  UNL1        0.1003
     20 C          15.9504   45.0062    6.3165 C.ar    1  UNL1        0.0204
     21 C          16.1373   43.8743    7.1096 C.ar    1  UNL1        0.0001
     22 N          13.8829   44.1014    5.5399 N.ar    1  UNL1       -0.2294
     23 C          12.9165   35.6259   10.1058 C.3     1  UNL1        0.1588
     24 C          14.2570   35.2888    9.4920 C.2     1  UNL1        0.2439
     25 N          14.4801   34.0415    8.8198 N.am    1  UNL1       -0.2630
     26 O          15.1854   36.1342    9.5874 O.2     1  UNL1       -0.2732
     27 H          13.7181   33.4218    8.7525 H       1  UNL1        0.1568
     28 C          15.7185   33.6243    8.2394 C.ar    1  UNL1        0.1653
     29 C          17.9341   33.3037    8.0535 C.ar    1  UNL1        0.1030
     30 C          17.5058   32.7340    6.8618 C.ar    1  UNL1        0.0293
     31 C          18.3892   32.1174    5.8383 C.3     1  UNL1        0.0399
     32 N          16.9266   33.7999    8.8204 N.ar    1  UNL1       -0.2227
     33 S          15.8318   32.8476    6.7543 S.2     1  UNL1       -0.0557
@<TRIPOS>BOND
     1    16    17    1
     2    18    22   ar
     3    18    14    1
     4    19    20   ar
     5    21    17   ar
     6     8     9   ar
     7    10    13   ar
     8    11     7   ar
     9    12    10    1
    10     1     9    1
    11     1     2    1
    12     2     3    1
    13     3     4    1
    14     4     6    1
    15     5     6    1
    16     5     1    1
    17    23     6    1
    18    23    24    1
    19    24    25   am
    20    28    33   ar
    21    29    32   ar
    22    30    33   ar
    23    31    30    1
    24    14     7    1
    25    25    28    1
    26    17    18   ar
    27    19    22   ar
    28    20    21   ar
    29     7     8   ar
    30     9    13   ar
    31    10    11   ar
    32    24    26    2
    33    28    32   ar
    34    29    30   ar
    35    14    15    1
    36    25    27    1
@<TRIPOS>MOLECULE
MolPort-020-292-467 MCULE-8174521789 PubChem-110264935
 33 36 0 0 0
SMALL
GASTEIGER

@<TRIPOS>ATOM
      1 C          12.5109   39.1962    9.7855 C.3     1  UNL1        0.0563
      2 C          13.4615   39.8485   10.7874 C.3     1  UNL1        0.0087
      3 C          13.7972   38.8722   11.9078 C.3     1  UNL1        0.0178
      4 C          14.3694   37.5905   11.3111 C.3     1  UNL1        0.0725
      5 C          13.1002   37.8801    9.2771 C.3     1  UNL1        0.0784
      6 N          13.3969   36.9822   10.3981 N.3     1  UNL1       -0.2647
      7 C          13.0638   41.7179    7.0229 C.ar    1  UNL1        0.0517
      8 C          13.3045   40.8514    8.0918 C.ar    1  UNL1        0.0294
      9 C          12.2489   40.1201    8.6425 C.ar    1  UNL1        0.0608
     10 C          10.7299   41.0916    7.0955 C.ar    1  UNL1        0.0602
     11 C          11.7611   41.8372    6.5217 C.ar    1  UNL1        0.0294
     12 C           9.3451   41.2122    6.5706 C.3     1  UNL1        0.0521
     13 N          10.9918   40.2554    8.1345 N.ar    1  UNL1       -0.2539
     14 N          14.1639   42.4577    6.4748 N.pl3   1  UNL1       -0.2981
     15 H          14.0481   42.7938    5.5567 H       1  UNL1        0.1536
     16 C          15.4424   44.9981    5.9307 C.3     1  UNL1        0.0340
     17 C          16.0441   43.9948    6.8538 C.ar    1  UNL1        0.0099
     18 C          15.4151   42.7651    7.1107 C.ar    1  UNL1        0.1281
     19 C          17.1877   42.1464    8.5770 C.ar    1  UNL1        0.1003
     20 C          17.8384   43.3580    8.3438 C.ar    1  UNL1        0.0204
     21 C          17.2597   44.2843    7.4766 C.ar    1  UNL1        0.0001
     22 N          16.0042   41.8792    7.9629 N.ar    1  UNL1       -0.2294
     23 C          13.9090   35.6985    9.8986 C.3     1  UNL1        0.1588
     24 C          15.1070   35.7754    8.9788 C.2     1  UNL1        0.2439
     25 N          15.0031   35.4515    7.5853 N.am    1  UNL1       -0.2630
     26 O          16.2118   36.1305    9.4679 O.2     1  UNL1       -0.2732
     27 H          14.1143   35.1995    7.2451 H       1  UNL1        0.1568
     28 C          16.0845   35.4646    6.6499 C.ar    1  UNL1        0.1653
     29 C          18.1871   35.6905    5.8922 C.ar    1  UNL1        0.1030
     30 C          17.5416   35.3376    4.7146 C.ar    1  UNL1        0.0293
     31 C          18.1951   35.1882    3.3885 C.3     1  UNL1        0.0399
     32 N          17.3640   35.7591    6.9726 N.ar    1  UNL1       -0.2227
     33 S          15.9048   35.1034    5.0193 S.2     1  UNL1       -0.0557
@<TRIPOS>BOND
     1    16    17    1
     2    18    22   ar
     3    18    14    1
     4    19    20   ar
     5    21    17   ar
     6     8     9   ar
     7    10    13   ar
     8    11     7   ar
     9    12    10    1
    10     1     9    1
    11     1     2    1
    12     2     3    1
    13     3     4    1
    14     4     6    1
    15     5     6    1
    16     5     1    1
    17    23     6    1
    18    23    24    1
    19    24    25   am
    20    28    33   ar
    21    29    32   ar
    22    30    33   ar
    23    31    30    1
    24    14     7    1
    25    25    28    1
    26    17    18   ar
    27    19    22   ar
    28    20    21   ar
    29     7     8   ar
    30     9    13   ar
    31    10    11   ar
    32    24    26    2
    33    28    32   ar
    34    29    30   ar
    35    14    15    1
    36    25    27    1
@<TRIPOS>MOLECULE
MolPort-020-292-467 MCULE-8174521789 PubChem-110264935
 33 36 0 0 0
SMALL
GASTEIGER

@<TRIPOS>ATOM
      1 C          12.4676   39.4601    9.8039 C.3     1  UNL1        0.0563
      2 C          11.9660   39.8336    8.4104 C.3     1  UNL1        0.0087
      3 C          10.4428   39.8231    8.3784 C.3     1  UNL1        0.0178
      4 C           9.9050   40.7541    9.4602 C.3     1  UNL1        0.0725
      5 C          11.8397   40.3760   10.8549 C.3     1  UNL1        0.0784
      6 N          10.3763   40.3193   10.7786 N.3     1  UNL1       -0.2647
      7 C          16.0029   40.6659    9.2167 C.ar    1  UNL1        0.0517
      8 C          14.6098   40.5753    9.1670 C.ar    1  UNL1        0.0294
      9 C          13.9564   39.5535    9.8610 C.ar    1  UNL1        0.0608
     10 C          16.0366   38.7171   10.6469 C.ar    1  UNL1        0.0602
     11 C          16.7213   39.7249    9.9656 C.ar    1  UNL1        0.0294
     12 C          16.7905   37.7145   11.4432 C.3     1  UNL1        0.0521
     13 N          14.6805   38.6522   10.5821 N.ar    1  UNL1       -0.2539
     14 N          16.6504   41.7237    8.4958 N.pl3   1  UNL1       -0.2981
     15 H          17.6131   41.8404    8.6657 H       1  UNL1        0.1536
     16 C          18.1001   44.1075    7.7213 C.3     1  UNL1        0.0340
     17 C          16.7513   43.7921    7.1718 C.ar    1  UNL1        0.0099
     18 C          16.0566   42.6324    7.5545 C.ar    1  UNL1        0.1281
     19 C          14.2418   43.2307    6.1321 C.ar    1  UNL1        0.1003
     20 C          14.9045   44.3908    5.7310 C.ar    1  UNL1        0.0204
     21 C          16.1660   44.6690    6.2564 C.ar    1  UNL1        0.0001
     22 N          14.8251   42.3865    7.0244 N.ar    1  UNL1       -0.2294
     23 C           9.7802   41.1572   11.8284 C.3     1  UNL1        0.1588
     24 C           8.3883   41.6788   11.5498 C.2     1  UNL1        0.2439
     25 N           7.8237   41.6386   10.2318 N.am    1  UNL1       -0.2630
     26 O           7.7285   42.1582   12.5093 O.2     1  UNL1       -0.2732
     27 H           8.3695   41.2356    9.5185 H       1  UNL1        0.1568
     28 C           6.5331   42.1360    9.8690 C.ar    1  UNL1        0.1653
     29 C           4.2918   42.2586    9.7811 C.ar    1  UNL1        0.1030
     30 C           4.6255   43.3560    8.9986 C.ar    1  UNL1        0.0293
     31 C           3.6549   44.2722    8.3455 C.3     1  UNL1        0.0399
     32 N           5.3662   41.5803   10.2659 N.ar    1  UNL1       -0.2227
     33 S           6.2987   43.4908    8.9040 S.2     1  UNL1       -0.0557
@<TRIPOS>BOND
     1    16    17    1
     2    18    22   ar
     3    18    14    1
     4    19    20   ar
     5    21    17   ar
     6     8     9   ar
     7    10    13   ar
     8    11     7   ar
     9    12    10    1
    10     1     9    1
    11     1     2    1
    12     2     3    1
    13     3     4    1
    14     4     6    1
    15     5     6    1
    16     5     1    1
    17    23     6    1
    18    23    24    1
    19    24    25   am
    20    28    33   ar
    21    29    32   ar
    22    30    33   ar
    23    31    30    1
    24    14     7    1
    25    25    28    1
    26    17    18   ar
    27    19    22   ar
    28    20    21   ar
    29     7     8   ar
    30     9    13   ar
    31    10    11   ar
    32    24    26    2
    33    28    32   ar
    34    29    30   ar
    35    14    15    1
    36    25    27    1
@<TRIPOS>MOLECULE
MolPort-020-292-467 MCULE-8174521789 PubChem-110264935
 33 36 0 0 0
SMALL
GASTEIGER

@<TRIPOS>ATOM
      1 C          11.2150   41.8175   10.9625 C.3     1  UNL1        0.0563
      2 C          10.1768   40.9087   11.6180 C.3     1  UNL1        0.0087
      3 C           9.0866   41.7442   12.2772 C.3     1  UNL1        0.0178
      4 C           8.4706   42.6826   11.2447 C.3     1  UNL1        0.0725
      5 C          10.5342   42.7859    9.9947 C.3     1  UNL1        0.0784
      6 N           9.5011   43.5635   10.6866 N.3     1  UNL1       -0.2647
      7 C          13.6918   40.6871    8.3386 C.ar    1  UNL1        0.0517
      8 C          12.7360   41.4480    9.0162 C.ar    1  UNL1        0.0294
      9 C          12.2370   41.0015   10.2427 C.ar    1  UNL1        0.0608
     10 C          13.6138   39.0684   10.1326 C.ar    1  UNL1        0.0602
     11 C          14.1333   39.4846    8.9056 C.ar    1  UNL1        0.0294
     12 C          14.0759   37.7941   10.7410 C.3     1  UNL1        0.0521
     13 N          12.6850   39.8281   10.7710 N.ar    1  UNL1       -0.2539
     14 N          14.1886   41.1666    7.0812 N.pl3   1  UNL1       -0.2981
     15 H          14.1978   40.5177    6.3408 H       1  UNL1        0.1536
     16 C          16.6615   42.0759    8.2821 C.3     1  UNL1        0.0340
     17 C          15.8732   42.9354    7.3544 C.ar    1  UNL1        0.0099
     18 C          14.6745   42.4841    6.7772 C.ar    1  UNL1        0.1281
     19 C          14.4271   44.5576    5.6307 C.ar    1  UNL1        0.1003
     20 C          15.6135   45.0364    6.1866 C.ar    1  UNL1        0.0204
     21 C          16.3372   44.2173    7.0528 C.ar    1  UNL1        0.0001
     22 N          13.9883   43.3068    5.9342 N.ar    1  UNL1       -0.2294
     23 C           8.8913   44.5315    9.7644 C.3     1  UNL1        0.1588
     24 C           7.4336   44.3032    9.4324 C.2     1  UNL1        0.2439
     25 N           6.7288   43.1490    9.9104 N.am    1  UNL1       -0.2630
     26 O           6.8452   45.1555    8.7160 O.2     1  UNL1       -0.2732
     27 H           7.2254   42.5218   10.4842 H       1  UNL1        0.1568
     28 C           5.3640   42.8347    9.6219 C.ar    1  UNL1        0.1653
     29 C           3.2080   43.1813    9.0948 C.ar    1  UNL1        0.1030
     30 C           3.2132   41.7964    9.1962 C.ar    1  UNL1        0.0293
     31 C           2.0354   40.9154    8.9854 C.3     1  UNL1        0.0399
     32 N           4.4172   43.7559    9.3341 N.ar    1  UNL1       -0.2227
     33 S           4.7590   41.2679    9.5935 S.2     1  UNL1       -0.0557
@<TRIPOS>BOND
     1    16    17    1
     2    18    22   ar
     3    18    14    1
     4    19    20   ar
     5    21    17   ar
     6     8     9   ar
     7    10    13   ar
     8    11     7   ar
     9    12    10    1
    10     1     9    1
    11     1     2    1
    12     2     3    1
    13     3     4    1
    14     4     6    1
    15     5     6    1
    16     5     1    1
    17    23     6    1
    18    23    24    1
    19    24    25   am
    20    28    33   ar
    21    29    32   ar
    22    30    33   ar
    23    31    30    1
    24    14     7    1
    25    25    28    1
    26    17    18   ar
    27    19    22   ar
    28    20    21   ar
    29     7     8   ar
    30     9    13   ar
    31    10    11   ar
    32    24    26    2
    33    28    32   ar
    34    29    30   ar
    35    14    15    1
    36    25    27    1
@<TRIPOS>MOLECULE
MolPort-020-292-467 MCULE-8174521789 PubChem-110264935
 33 36 0 0 0
SMALL
GASTEIGER

@<TRIPOS>ATOM
      1 C          10.1802   42.0954   10.3555 C.3     1  UNL1        0.0563
      2 C           9.3288   41.1541   11.2054 C.3     1  UNL1        0.0087
      3 C           7.9446   41.7509   11.4266 C.3     1  UNL1        0.0178
      4 C           7.3024   42.0596   10.0780 C.3     1  UNL1        0.0725
      5 C           9.4563   42.4300    9.0509 C.3     1  UNL1        0.0784
      6 N           8.1356   43.0043    9.3280 N.3     1  UNL1       -0.2647
      7 C          13.4499   41.2754    8.6427 C.ar    1  UNL1        0.0517
      8 C          12.2090   41.8544    8.9187 C.ar    1  UNL1        0.0294
      9 C          11.5064   41.4746   10.0653 C.ar    1  UNL1        0.0608
     10 C          13.2398   39.9635   10.6625 C.ar    1  UNL1        0.0602
     11 C          13.9681   40.3196    9.5262 C.ar    1  UNL1        0.0294
     12 C          13.7815   38.9503   11.6047 C.3     1  UNL1        0.0521
     13 N          12.0349   40.5429   10.9075 N.ar    1  UNL1       -0.2539
     14 N          14.1517   41.6818    7.4595 N.pl3   1  UNL1       -0.2981
     15 H          13.7763   41.3734    6.6032 H       1  UNL1        0.1536
     16 C          14.1572   44.0325    5.7688 C.3     1  UNL1        0.0340
     17 C          15.3527   43.6296    6.5621 C.ar    1  UNL1        0.0099
     18 C          15.3391   42.4869    7.3794 C.ar    1  UNL1        0.1281
     19 C          17.5930   42.9041    8.0278 C.ar    1  UNL1        0.1003
     20 C          17.6400   44.0447    7.2262 C.ar    1  UNL1        0.0204
     21 C          16.5112   44.4056    6.4910 C.ar    1  UNL1        0.0001
     22 N          16.4572   42.1587    8.0866 N.ar    1  UNL1       -0.2294
     23 C           7.4700   43.3762    8.0717 C.3     1  UNL1        0.1588
     24 C           7.8577   42.5701    6.8522 C.2     1  UNL1        0.2439
     25 N           8.8491   41.5360    6.9226 N.am    1  UNL1       -0.2630
     26 O           7.2881   42.8311    5.7599 O.2     1  UNL1       -0.2732
     27 H           9.2512   41.3546    7.8027 H       1  UNL1        0.1568
     28 C           9.3013   40.7468    5.8192 C.ar    1  UNL1        0.1653
     29 C          10.5232   40.1750    4.0231 C.ar    1  UNL1        0.1030
     30 C           9.7004   39.0608    4.1213 C.ar    1  UNL1        0.0293
     31 C           9.7343   37.8854    3.2128 C.3     1  UNL1        0.0399
     32 N          10.2939   41.1152    4.9785 N.ar    1  UNL1       -0.2227
     33 S           8.6592   39.2446    5.4285 S.2     1  UNL1       -0.0557
@<TRIPOS>BOND
     1    16    17    1
     2    18    22   ar
     3    18    14    1
     4    19    20   ar
     5    21    17   ar
     6     8     9   ar
     7    10    13   ar
     8    11     7   ar
     9    12    10    1
    10     1     9    1
    11     1     2    1
    12     2     3    1
    13     3     4    1
    14     4     6    1
    15     5     6    1
    16     5     1    1
    17    23     6    1
    18    23    24    1
    19    24    25   am
    20    28    33   ar
    21    29    32   ar
    22    30    33   ar
    23    31    30    1
    24    14     7    1
    25    25    28    1
    26    17    18   ar
    27    19    22   ar
    28    20    21   ar
    29     7     8   ar
    30     9    13   ar
    31    10    11   ar
    32    24    26    2
    33    28    32   ar
    34    29    30   ar
    35    14    15    1
    36    25    27    1
@<TRIPOS>MOLECULE
MolPort-020-292-467 MCULE-8174521789 PubChem-110264935
 33 36 0 0 0
SMALL
GASTEIGER

@<TRIPOS>ATOM
      1 C          10.8832   42.2524    8.7629 C.3     1  UNL1        0.0563
      2 C          10.4736   42.9076   10.0805 C.3     1  UNL1        0.0087
      3 C           9.2774   43.8258    9.8628 C.3     1  UNL1        0.0178
      4 C           8.1388   43.0353    9.2263 C.3     1  UNL1        0.0725
      5 C           9.6867   41.5388    8.1328 C.3     1  UNL1        0.0784
      6 N           8.5718   42.4726    7.9437 N.3     1  UNL1       -0.2647
      7 C          14.3523   40.7514    8.8589 C.ar    1  UNL1        0.0517
      8 C          13.3049   41.6518    8.6498 C.ar    1  UNL1        0.0294
      9 C          11.9994   41.2873    8.9891 C.ar    1  UNL1        0.0608
     10 C          12.7553   39.1620    9.7352 C.ar    1  UNL1        0.0602
     11 C          14.0711   39.4935    9.4076 C.ar    1  UNL1        0.0294
     12 C          12.4477   37.8299   10.3171 C.3     1  UNL1        0.0521
     13 N          11.7550   40.0572    9.5219 N.ar    1  UNL1       -0.2539
     14 N          15.6838   41.1489    8.5024 N.pl3   1  UNL1       -0.2981
     15 H          16.4104   40.5575    8.8050 H       1  UNL1        0.1536
     16 C          18.5011   41.7425    8.1951 C.3     1  UNL1        0.0340
     17 C          17.4440   42.6076    7.5994 C.ar    1  UNL1        0.0099
     18 C          16.0797   42.3103    7.7547 C.ar    1  UNL1        0.1281
     19 C          15.4982   44.2362    6.4791 C.ar    1  UNL1        0.1003
     20 C          16.8439   44.5600    6.3059 C.ar    1  UNL1        0.0204
     21 C          17.8188   43.7384    6.8711 C.ar    1  UNL1        0.0001
     22 N          15.1491   43.1315    7.1911 N.ar    1  UNL1       -0.2294
     23 C           7.4469   41.7936    7.2857 C.3     1  UNL1        0.1588
     24 C           6.2540   41.4853    8.1627 C.2     1  UNL1        0.2439
     25 N           6.0644   42.1387    9.4255 N.am    1  UNL1       -0.2630
     26 O           5.4225   40.6303    7.7585 O.2     1  UNL1       -0.2732
     27 H           6.7299   42.8147    9.6889 H       1  UNL1        0.1568
     28 C           4.9881   41.8888   10.3331 C.ar    1  UNL1        0.1653
     29 C           3.8357   40.8853   11.9796 C.ar    1  UNL1        0.1030
     30 C           2.9445   41.8946   11.6403 C.ar    1  UNL1        0.0293
     31 C           1.6237   42.1253   12.2807 C.3     1  UNL1        0.0399
     32 N           4.9789   40.8889   11.2431 N.ar    1  UNL1       -0.2227
     33 S           3.5902   42.8183   10.3926 S.2     1  UNL1       -0.0557
@<TRIPOS>BOND
     1    16    17    1
     2    18    22   ar
     3    18    14    1
     4    19    20   ar
     5    21    17   ar
     6     8     9   ar
     7    10    13   ar
     8    11     7   ar
     9    12    10    1
    10     1     9    1
    11     1     2    1
    12     2     3    1
    13     3     4    1
    14     4     6    1
    15     5     6    1
    16     5     1    1
    17    23     6    1
    18    23    24    1
    19    24    25   am
    20    28    33   ar
    21    29    32   ar
    22    30    33   ar
    23    31    30    1
    24    14     7    1
    25    25    28    1
    26    17    18   ar
    27    19    22   ar
    28    20    21   ar
    29     7     8   ar
    30     9    13   ar
    31    10    11   ar
    32    24    26    2
    33    28    32   ar
    34    29    30   ar
    35    14    15    1
    36    25    27    1
@<TRIPOS>MOLECULE
MolPort-020-292-467 MCULE-8174521789 PubChem-110264935
 33 36 0 0 0
SMALL
GASTEIGER

@<TRIPOS>ATOM
      1 C          13.5614   42.6921    6.9476 C.3     1  UNL1        0.0563
      2 C          13.7609   43.3071    5.5637 C.3     1  UNL1        0.0087
      3 C          14.8611   44.3601    5.6087 C.3     1  UNL1        0.0178
      4 C          16.1396   43.7366    6.1591 C.3     1  UNL1        0.0725
      5 C          14.8879   42.1507    7.4818 C.3     1  UNL1        0.0784
      6 N          15.9030   43.2088    7.5062 N.3     1  UNL1       -0.2647
      7 C          11.3463   39.8046    7.9735 C.ar    1  UNL1        0.0517
      8 C          12.2959   40.8278    8.0252 C.ar    1  UNL1        0.0294
      9 C          12.5449   41.6005    6.8879 C.ar    1  UNL1        0.0608
     10 C          10.9320   40.3632    5.6581 C.ar    1  UNL1        0.0602
     11 C          10.6586   39.5722    6.7753 C.ar    1  UNL1        0.0294
     12 C          10.2078   40.1234    4.3831 C.3     1  UNL1        0.0521
     13 N          11.8606   41.3526    5.7359 N.ar    1  UNL1       -0.2539
     14 N          11.1087   39.0252    9.1542 N.pl3   1  UNL1       -0.2981
     15 H          10.2368   39.1543    9.5928 H       1  UNL1        0.1536
     16 C          12.9756   39.9381   11.1704 C.3     1  UNL1        0.0340
     17 C          12.9057   38.5101   10.7501 C.ar    1  UNL1        0.0099
     18 C          11.9958   38.0779    9.7707 C.ar    1  UNL1        0.1281
     19 C          12.7978   35.8453    9.9877 C.ar    1  UNL1        0.1003
     20 C          13.7129   36.2411   10.9633 C.ar    1  UNL1        0.0204
     21 C          13.7636   37.5820   11.3434 C.ar    1  UNL1        0.0001
     22 N          11.9688   36.7611    9.4192 N.ar    1  UNL1       -0.2294
     23 C          17.1575   42.6958    8.0741 C.3     1  UNL1        0.1588
     24 C          17.0656   41.3690    8.7940 C.2     1  UNL1        0.2439
     25 N          18.2366   40.6979    9.2795 N.am    1  UNL1       -0.2630
     26 O          15.9264   40.8575    8.9574 O.2     1  UNL1       -0.2732
     27 H          19.1026   41.1470    9.1466 H       1  UNL1        0.1568
     28 C          18.2495   39.4300    9.9406 C.ar    1  UNL1        0.1653
     29 C          17.5125   37.7299   11.2104 C.ar    1  UNL1        0.1030
     30 C          18.7486   37.2275   10.8263 C.ar    1  UNL1        0.0293
     31 C          19.3005   35.9067   11.2252 C.3     1  UNL1        0.0399
     32 N          17.2396   38.9644   10.7095 N.ar    1  UNL1       -0.2227
     33 S          19.5263   38.3434    9.8381 S.2     1  UNL1       -0.0557
@<TRIPOS>BOND
     1    16    17    1
     2    18    22   ar
     3    18    14    1
     4    19    20   ar
     5    21    17   ar
     6     8     9   ar
     7    10    13   ar
     8    11     7   ar
     9    12    10    1
    10     1     9    1
    11     1     2    1
    12     2     3    1
    13     3     4    1
    14     4     6    1
    15     5     6    1
    16     5     1    1
    17    23     6    1
    18    23    24    1
    19    24    25   am
    20    28    33   ar
    21    29    32   ar
    22    30    33   ar
    23    31    30    1
    24    14     7    1
    25    25    28    1
    26    17    18   ar
    27    19    22   ar
    28    20    21   ar
    29     7     8   ar
    30     9    13   ar
    31    10    11   ar
    32    24    26    2
    33    28    32   ar
    34    29    30   ar
    35    14    15    1
    36    25    27    1
@<TRIPOS>MOLECULE
MolPort-020-292-467 MCULE-8174521789 PubChem-110264935
 33 36 0 0 0
SMALL
GASTEIGER

@<TRIPOS>ATOM
      1 C          14.0569   42.9405    7.2446 C.3     1  UNL1        0.0563
      2 C          14.1423   43.4566    5.8095 C.3     1  UNL1        0.0087
      3 C          15.1515   44.5942    5.7178 C.3     1  UNL1        0.0178
      4 C          16.5010   44.1208    6.2480 C.3     1  UNL1        0.0725
      5 C          15.4465   42.5512    7.7499 C.3     1  UNL1        0.0784
      6 N          16.3698   43.6854    7.6418 N.3     1  UNL1       -0.2647
      7 C          10.9712   40.7868    6.8750 C.ar    1  UNL1        0.0517
      8 C          11.8391   41.8792    6.8053 C.ar    1  UNL1        0.0294
      9 C          13.1334   41.7701    7.3203 C.ar    1  UNL1        0.0608
     10 C          12.7180   39.5222    7.9678 C.ar    1  UNL1        0.0602
     11 C          11.4186   39.5967    7.4634 C.ar    1  UNL1        0.0294
     12 C          13.2006   38.2642    8.5941 C.3     1  UNL1        0.0521
     13 N          13.5421   40.6000    7.8867 N.ar    1  UNL1       -0.2539
     14 N           9.6475   40.9236    6.3394 N.pl3   1  UNL1       -0.2981
     15 H           9.4098   40.3126    5.6049 H       1  UNL1        0.1536
     16 C           9.0428   41.2033    9.1572 C.3     1  UNL1        0.0340
     17 C           8.3270   41.9927    8.1155 C.ar    1  UNL1        0.0099
     18 C           8.6283   41.8491    6.7508 C.ar    1  UNL1        0.1281
     19 C           6.9779   43.4757    6.1986 C.ar    1  UNL1        0.1003
     20 C           6.6543   43.6426    7.5451 C.ar    1  UNL1        0.0204
     21 C           7.3351   42.8947    8.5055 C.ar    1  UNL1        0.0001
     22 N           7.9464   42.5933    5.8347 N.ar    1  UNL1       -0.2294
     23 C          17.6870   43.3212    8.1821 C.3     1  UNL1        0.1588
     24 C          17.9125   41.8486    8.4427 C.2     1  UNL1        0.2439
     25 N          17.3032   41.1838    9.5580 N.am    1  UNL1       -0.2630
     26 O          18.6581   41.2113    7.6529 O.2     1  UNL1       -0.2732
     27 H          16.7119   41.7190   10.1352 H       1  UNL1        0.1568
     28 C          17.4840   39.8073    9.9004 C.ar    1  UNL1        0.1653
     29 C          16.9428   37.6577   10.2641 C.ar    1  UNL1        0.1030
     30 C          18.3033   37.6149   10.5385 C.ar    1  UNL1        0.0293
     31 C          19.0588   36.4033   10.9498 C.3     1  UNL1        0.0399
     32 N          16.4912   38.8896    9.9066 N.ar    1  UNL1       -0.2227
     33 S          18.9665   39.1461   10.3325 S.2     1  UNL1       -0.0557
@<TRIPOS>BOND
     1    16    17    1
     2    18    22   ar
     3    18    14    1
     4    19    20   ar
     5    21    17   ar
     6     8     9   ar
     7    10    13   ar
     8    11     7   ar
     9    12    10    1
    10     1     9    1
    11     1     2    1
    12     2     3    1
    13     3     4    1
    14     4     6    1
    15     5     6    1
    16     5     1    1
    17    23     6    1
    18    23    24    1
    19    24    25   am
    20    28    33   ar
    21    29    32   ar
    22    30    33   ar
    23    31    30    1
    24    14     7    1
    25    25    28    1
    26    17    18   ar
    27    19    22   ar
    28    20    21   ar
    29     7     8   ar
    30     9    13   ar
    31    10    11   ar
    32    24    26    2
    33    28    32   ar
    34    29    30   ar
    35    14    15    1
    36    25    27    1
@<TRIPOS>MOLECULE
MolPort-020-292-467 MCULE-8174521789 PubChem-110264935
 33 36 0 0 0
SMALL
GASTEIGER

@<TRIPOS>ATOM
      1 C          10.3397   41.8796   10.6252 C.3     1  UNL1        0.0563
      2 C           9.7342   41.2502   11.8784 C.3     1  UNL1        0.0087
      3 C           8.3624   41.8505   12.1592 C.3     1  UNL1        0.0178
      4 C           7.4718   41.6796   10.9329 C.3     1  UNL1        0.0725
      5 C           9.3743   41.7456    9.4471 C.3     1  UNL1        0.0784
      6 N           8.0764   42.3447    9.7747 N.3     1  UNL1       -0.2647
      7 C          13.4806   40.8964    8.7638 C.ar    1  UNL1        0.0517
      8 C          12.2598   41.5006    9.0735 C.ar    1  UNL1        0.0294
      9 C          11.6448   41.2324   10.2992 C.ar    1  UNL1        0.0608
     10 C          13.4257   39.7827   10.9090 C.ar    1  UNL1        0.0602
     11 C          14.0673   40.0283    9.6938 C.ar    1  UNL1        0.0294
     12 C          14.0404   38.8631   11.9009 C.3     1  UNL1        0.0521
     13 N          12.2386   40.3843   11.1852 N.ar    1  UNL1       -0.2539
     14 N          14.0921   41.1875    7.4992 N.pl3   1  UNL1       -0.2981
     15 H          14.1811   40.4319    6.8745 H       1  UNL1        0.1536
     16 C          16.7098   42.0778    8.3589 C.3     1  UNL1        0.0340
     17 C          15.8584   42.8961    7.4497 C.ar    1  UNL1        0.0099
     18 C          14.5896   42.4544    7.0388 C.ar    1  UNL1        0.1281
     19 C          14.2958   44.4405    5.7567 C.ar    1  UNL1        0.1003
     20 C          15.5510   44.9084    6.1455 C.ar    1  UNL1        0.0204
     21 C          16.3332   44.1285    6.9969 C.ar    1  UNL1        0.0001
     22 N          13.8474   43.2380    6.2062 N.ar    1  UNL1       -0.2294
     23 C           7.1732   42.2634    8.6184 C.3     1  UNL1        0.1588
     24 C           7.5948   41.3214    7.5130 C.2     1  UNL1        0.2439
     25 N           8.8245   41.5082    6.7985 N.am    1  UNL1       -0.2630
     26 O           6.8333   40.3601    7.2267 O.2     1  UNL1       -0.2732
     27 H           9.3962   42.2614    7.0723 H       1  UNL1        0.1568
     28 C           9.2880   40.6902    5.7212 C.ar    1  UNL1        0.1653
     29 C          10.4883   40.0953    3.9180 C.ar    1  UNL1        0.1030
     30 C           9.7310   38.9451    4.0953 C.ar    1  UNL1        0.0293
     31 C           9.8036   37.7293    3.2441 C.3     1  UNL1        0.0399
     32 N          10.2349   41.0686    4.8334 N.ar    1  UNL1       -0.2227
     33 S           8.7184   39.1381    5.4235 S.2     1  UNL1       -0.0557
@<TRIPOS>BOND
     1    16    17    1
     2    18    22   ar
     3    18    14    1
     4    19    20   ar
     5    21    17   ar
     6     8     9   ar
     7    10    13   ar
     8    11     7   ar
     9    12    10    1
    10     1     9    1
    11     1     2    1
    12     2     3    1
    13     3     4    1
    14     4     6    1
    15     5     6    1
    16     5     1    1
    17    23     6    1
    18    23    24    1
    19    24    25   am
    20    28    33   ar
    21    29    32   ar
    22    30    33   ar
    23    31    30    1
    24    14     7    1
    25    25    28    1
    26    17    18   ar
    27    19    22   ar
    28    20    21   ar
    29     7     8   ar
    30     9    13   ar
    31    10    11   ar
    32    24    26    2
    33    28    32   ar
    34    29    30   ar
    35    14    15    1
    36    25    27    1
@<TRIPOS>MOLECULE
MolPort-020-292-467 MCULE-8174521789 PubChem-110264935
 33 36 0 0 0
SMALL
GASTEIGER

@<TRIPOS>ATOM
      1 C          13.8709   38.7596   10.7749 C.3     1  UNL1        0.0563
      2 C          13.5699   37.3618   10.2374 C.3     1  UNL1        0.0087
      3 C          12.1158   36.9957   10.5067 C.3     1  UNL1        0.0178
      4 C          11.2036   38.0600    9.9057 C.3     1  UNL1        0.0725
      5 C          12.8811   39.7723   10.1982 C.3     1  UNL1        0.0784
      6 N          11.5022   39.3695   10.4934 N.3     1  UNL1       -0.2647
      7 C          16.8039   40.6794    9.3576 C.ar    1  UNL1        0.0517
      8 C          15.4964   40.3064    9.6778 C.ar    1  UNL1        0.0294
      9 C          15.2701   39.1548   10.4361 C.ar    1  UNL1        0.0608
     10 C          17.6065   38.7425   10.5614 C.ar    1  UNL1        0.0602
     11 C          17.8684   39.8866    9.8057 C.ar    1  UNL1        0.0294
     12 C          18.7294   37.8955   11.0403 C.3     1  UNL1        0.0521
     13 N          16.3247   38.4027   10.8592 N.ar    1  UNL1       -0.2539
     14 N          17.0104   41.8657    8.5780 N.pl3   1  UNL1       -0.2981
     15 H          17.8738   42.3225    8.7007 H       1  UNL1        0.1536
     16 C          17.9119   44.0910    6.9594 C.3     1  UNL1        0.0340
     17 C          16.5299   43.5447    6.8483 C.ar    1  UNL1        0.0099
     18 C          16.1028   42.4645    7.6386 C.ar    1  UNL1        0.1281
     19 C          13.9512   42.5487    6.6197 C.ar    1  UNL1        0.1003
     20 C          14.3432   43.6222    5.8199 C.ar    1  UNL1        0.0204
     21 C          15.6406   44.1198    5.9383 C.ar    1  UNL1        0.0001
     22 N          14.8289   41.9994    7.5012 N.ar    1  UNL1       -0.2294
     23 C          10.5596   40.3764    9.9864 C.3     1  UNL1        0.1588
     24 C          10.0995   40.1935    8.5574 C.2     1  UNL1        0.2439
     25 N          11.0350   39.9801    7.4912 N.am    1  UNL1       -0.2630
     26 O           8.8637   40.2366    8.3193 O.2     1  UNL1       -0.2732
     27 H          11.9890   39.9333    7.7297 H       1  UNL1        0.1568
     28 C          10.6955   39.8296    6.1103 C.ar    1  UNL1        0.1653
     29 C          10.6611   40.2729    3.9084 C.ar    1  UNL1        0.1030
     30 C           9.8510   39.1457    3.9415 C.ar    1  UNL1        0.0293
     31 C           9.2059   38.5167    2.7599 C.3     1  UNL1        0.0399
     32 N          11.1311   40.6497    5.1277 N.ar    1  UNL1       -0.2227
     33 S           9.7125   38.5995    5.5255 S.2     1  UNL1       -0.0557
@<TRIPOS>BOND
     1    16    17    1
     2    18    22   ar
     3    18    14    1
     4    19    20   ar
     5    21    17   ar
     6     8     9   ar
     7    10    13   ar
     8    11     7   ar
     9    12    10    1
    10     1     9    1
    11     1     2    1
    12     2     3    1
    13     3     4    1
    14     4     6    1
    15     5     6    1
    16     5     1    1
    17    23     6    1
    18    23    24    1
    19    24    25   am
    20    28    33   ar
    21    29    32   ar
    22    30    33   ar
    23    31    30    1
    24    14     7    1
    25    25    28    1
    26    17    18   ar
    27    19    22   ar
    28    20    21   ar
    29     7     8   ar
    30     9    13   ar
    31    10    11   ar
    32    24    26    2
    33    28    32   ar
    34    29    30   ar
    35    14    15    1
    36    25    27    1
