@<TRIPOS>MOLECULE
MolPort-019-739-926 CSSS00965960715 MCULE-3291118230 PubChem-56689610
 25 27 0 0 0
SMALL
GASTEIGER

@<TRIPOS>ATOM
      1 C          14.6227   40.1230    9.4805 C.ar    1  UNL1        0.1725
      2 C          13.9276   39.6259   10.5954 C.ar    1  UNL1        0.0413
      3 C          12.6206   40.0336   10.8608 C.ar    1  UNL1        0.0180
      4 C          11.9828   40.9500   10.0181 C.ar    1  UNL1        0.0535
      5 C          12.6669   41.4448    8.9058 C.ar    1  UNL1        0.0547
      6 C          13.9753   41.0409    8.6172 C.ar    1  UNL1        0.1733
      7 C          10.1719   42.7533   10.2577 C.2     1  UNL1        0.2270
      8 O          10.9589   43.7086   10.0244 O.2     1  UNL1       -0.2747
      9 N          10.6415   41.3964   10.2569 N.am    1  UNL1       -0.2838
     10 H           9.9714   40.6987   10.4396 H       1  UNL1        0.1549
     11 C           8.7369   43.0622   10.5675 C.3     1  UNL1        0.0928
     12 C           8.1750   44.2499    9.7882 C.3     1  UNL1        0.0119
     13 C           7.7828   43.8348    8.3792 C.3     1  UNL1        0.0179
     14 C           6.7931   42.6733    8.4449 C.3     1  UNL1        0.0722
     15 C           8.4154   40.9045    8.3442 C.3     1  UNL1        0.0896
     16 C           7.8251   41.8243   10.4900 C.3     1  UNL1        0.0812
     17 N           7.3480   41.5024    9.1354 N.3     1  UNL1       -0.2711
     18 C          17.0530   40.2443    9.9559 C.3     1  UNL1        0.2526
     19 O          15.9421   39.7246    9.2375 O.3     1  UNL1       -0.4684
     20 O          14.5777   41.5899    7.4744 O.3     1  UNL1       -0.4761
     21 C          14.7762   42.9795    7.2439 C.3     1  UNL1        0.1660
     22 C          14.1141   43.3810    5.9374 C.3     1  UNL1        0.0435
     23 C          15.2097   43.9071    5.0321 C.3     1  UNL1        0.0038
     24 C          16.3655   44.2478    5.9423 C.3     1  UNL1        0.0038
     25 C          16.2577   43.2748    7.0919 C.3     1  UNL1        0.0435
@<TRIPOS>BOND
     1    18    19    1
     2     1    19    1
     3     2     3   ar
     4     4     9    1
     5     4     5   ar
     6    11     7    1
     7    11    12    1
     8    12    13    1
     9    13    14    1
    10    14    17    1
    11    15    17    1
    12    16    17    1
    13    16    11    1
    14     6    20    1
    15     6     1   ar
    16    21    20    1
    17    21    22    1
    18    22    23    1
    19    23    24    1
    20    24    25    1
    21    25    21    1
    22     9     7   am
    23     1     2   ar
    24     3     4   ar
    25     7     8    2
    26     5     6   ar
    27     9    10    1
@<TRIPOS>MOLECULE
MolPort-019-739-926 CSSS00965960715 MCULE-3291118230 PubChem-56689610
 25 27 0 0 0
SMALL
GASTEIGER

@<TRIPOS>ATOM
      1 C          15.9131   42.7571    7.4295 C.ar    1  UNL1        0.1725
      2 C          15.4281   43.5035    6.3429 C.ar    1  UNL1        0.0413
      3 C          14.1382   43.2965    5.8546 C.ar    1  UNL1        0.0180
      4 C          13.3078   42.3357    6.4412 C.ar    1  UNL1        0.0535
      5 C          13.7826   41.5932    7.5245 C.ar    1  UNL1        0.0547
      6 C          15.0703   41.7927    8.0348 C.ar    1  UNL1        0.1733
      7 C          11.2780   40.8362    5.9722 C.2     1  UNL1        0.2270
      8 O          11.8211   39.7964    6.4309 O.2     1  UNL1       -0.2747
      9 N          11.9768   42.0905    5.9681 N.am    1  UNL1       -0.2838
     10 H          11.4905   42.8640    5.6016 H       1  UNL1        0.1549
     11 C           9.8949   40.7333    5.4006 C.3     1  UNL1        0.0928
     12 C           9.3570   39.3053    5.3291 C.3     1  UNL1        0.0119
     13 C           8.8318   38.8572    6.6836 C.3     1  UNL1        0.0179
     14 C           7.7737   39.8438    7.1738 C.3     1  UNL1        0.0722
     15 C           9.2605   41.2768    8.4012 C.3     1  UNL1        0.0896
     16 C           8.8983   41.7042    6.0592 C.3     1  UNL1        0.0812
     17 N           8.2991   41.2082    7.3086 N.3     1  UNL1       -0.2711
     18 C          18.0386   44.0332    7.4624 C.3     1  UNL1        0.2526
     19 O          17.2175   42.9571    7.8957 O.3     1  UNL1       -0.4684
     20 O          15.4553   41.0015    9.1286 O.3     1  UNL1       -0.4761
     21 C          14.9110   39.7259    9.4450 C.3     1  UNL1        0.1660
     22 C          13.7281   39.8929   10.3828 C.3     1  UNL1        0.0435
     23 C          14.0726   39.1559   11.6614 C.3     1  UNL1        0.0038
     24 C          15.1871   38.2038   11.2986 C.3     1  UNL1        0.0038
     25 C          15.9406   38.8904   10.1847 C.3     1  UNL1        0.0435
@<TRIPOS>BOND
     1    18    19    1
     2     1    19    1
     3     2     3   ar
     4     4     9    1
     5     4     5   ar
     6    11     7    1
     7    11    12    1
     8    12    13    1
     9    13    14    1
    10    14    17    1
    11    15    17    1
    12    16    17    1
    13    16    11    1
    14     6    20    1
    15     6     1   ar
    16    21    20    1
    17    21    22    1
    18    22    23    1
    19    23    24    1
    20    24    25    1
    21    25    21    1
    22     9     7   am
    23     1     2   ar
    24     3     4   ar
    25     7     8    2
    26     5     6   ar
    27     9    10    1
@<TRIPOS>MOLECULE
MolPort-019-739-926 CSSS00965960715 MCULE-3291118230 PubChem-56689610
 25 27 0 0 0
SMALL
GASTEIGER

@<TRIPOS>ATOM
      1 C          11.0220   41.5062    8.5766 C.ar    1  UNL1        0.1725
      2 C          10.7040   40.5184    9.5233 C.ar    1  UNL1        0.0413
      3 C          11.7101   39.8245   10.1951 C.ar    1  UNL1        0.0180
      4 C          13.0555   40.1020    9.9311 C.ar    1  UNL1        0.0535
      5 C          13.3781   41.0858    8.9940 C.ar    1  UNL1        0.0547
      6 C          12.3833   41.7995    8.3164 C.ar    1  UNL1        0.1733
      7 C          14.8497   38.2750   10.1080 C.2     1  UNL1        0.2270
      8 O          14.5932   37.7814    8.9780 O.2     1  UNL1       -0.2747
      9 N          14.1194   39.4101   10.5979 N.am    1  UNL1       -0.2838
     10 H          14.3766   39.7491   11.4857 H       1  UNL1        0.1549
     11 C          15.9147   37.6344   10.9482 C.3     1  UNL1        0.0928
     12 C          16.7720   36.6182   10.1959 C.3     1  UNL1        0.0119
     13 C          17.8410   37.3177    9.3719 C.3     1  UNL1        0.0179
     14 C          18.6806   38.2150   10.2791 C.3     1  UNL1        0.0722
     15 C          17.3783   40.2136    9.9954 C.3     1  UNL1        0.0896
     16 C          16.7627   38.6567   11.7264 C.3     1  UNL1        0.0812
     17 N          17.8746   39.2380   10.9570 N.3     1  UNL1       -0.2711
     18 C           8.6577   42.2164    8.3456 C.3     1  UNL1        0.2526
     19 O          10.0040   42.1794    7.8915 O.3     1  UNL1       -0.4684
     20 O          12.8064   42.7720    7.3968 O.3     1  UNL1       -0.4761
     21 C          13.8951   42.6223    6.4935 C.3     1  UNL1        0.1660
     22 C          15.2044   42.6422    7.2627 C.3     1  UNL1        0.0435
     23 C          16.0009   43.8233    6.7457 C.3     1  UNL1        0.0038
     24 C          15.3927   44.1744    5.4087 C.3     1  UNL1        0.0038
     25 C          13.9363   43.7950    5.5301 C.3     1  UNL1        0.0435
@<TRIPOS>BOND
     1    18    19    1
     2     1    19    1
     3     2     3   ar
     4     4     9    1
     5     4     5   ar
     6    11     7    1
     7    11    12    1
     8    12    13    1
     9    13    14    1
    10    14    17    1
    11    15    17    1
    12    16    17    1
    13    16    11    1
    14     6    20    1
    15     6     1   ar
    16    21    20    1
    17    21    22    1
    18    22    23    1
    19    23    24    1
    20    24    25    1
    21    25    21    1
    22     9     7   am
    23     1     2   ar
    24     3     4   ar
    25     7     8    2
    26     5     6   ar
    27     9    10    1
@<TRIPOS>MOLECULE
MolPort-019-739-926 CSSS00965960715 MCULE-3291118230 PubChem-56689610
 25 27 0 0 0
SMALL
GASTEIGER

@<TRIPOS>ATOM
      1 C          14.2358   40.3748    9.6305 C.ar    1  UNL1        0.1725
      2 C          13.3585   39.8294   10.5823 C.ar    1  UNL1        0.0413
      3 C          11.9771   39.9178   10.4120 C.ar    1  UNL1        0.0180
      4 C          11.4446   40.5569    9.2874 C.ar    1  UNL1        0.0535
      5 C          12.3115   41.0975    8.3354 C.ar    1  UNL1        0.0547
      6 C          13.7004   41.0109    8.4835 C.ar    1  UNL1        0.1733
      7 C           9.2021   41.8020    9.3852 C.2     1  UNL1        0.2270
      8 O           9.6956   42.8452    9.8899 O.2     1  UNL1       -0.2747
      9 N          10.0312   40.6712    9.0760 N.am    1  UNL1       -0.2838
     10 H           9.5815   39.8918    8.6766 H       1  UNL1        0.1549
     11 C           7.7229   41.7513    9.1403 C.3     1  UNL1        0.0928
     12 C           7.0444   43.1199    9.1500 C.3     1  UNL1        0.0119
     13 C           7.2413   43.8300    7.8203 C.3     1  UNL1        0.0179
     14 C           6.7281   42.9445    6.6865 C.3     1  UNL1        0.0722
     15 C           8.8074   41.8349    6.2216 C.3     1  UNL1        0.0896
     16 C           7.3467   40.9177    7.9021 C.3     1  UNL1        0.0812
     17 N           7.4204   41.6510    6.6281 N.3     1  UNL1       -0.2711
     18 C          16.2690   39.1483   10.3441 C.3     1  UNL1        0.2526
     19 O          15.6200   40.3008    9.8239 O.3     1  UNL1       -0.4684
     20 O          14.4891   41.5801    7.4715 O.3     1  UNL1       -0.4761
     21 C          14.6894   42.9754    7.2802 C.3     1  UNL1        0.1660
     22 C          14.0291   43.4141    5.9848 C.3     1  UNL1        0.0435
     23 C          15.1262   43.9641    5.0957 C.3     1  UNL1        0.0038
     24 C          16.2815   44.2778    6.0162 C.3     1  UNL1        0.0038
     25 C          16.1714   43.2732    7.1380 C.3     1  UNL1        0.0435
@<TRIPOS>BOND
     1    18    19    1
     2     1    19    1
     3     2     3   ar
     4     4     9    1
     5     4     5   ar
     6    11     7    1
     7    11    12    1
     8    12    13    1
     9    13    14    1
    10    14    17    1
    11    15    17    1
    12    16    17    1
    13    16    11    1
    14     6    20    1
    15     6     1   ar
    16    21    20    1
    17    21    22    1
    18    22    23    1
    19    23    24    1
    20    24    25    1
    21    25    21    1
    22     9     7   am
    23     1     2   ar
    24     3     4   ar
    25     7     8    2
    26     5     6   ar
    27     9    10    1
@<TRIPOS>MOLECULE
MolPort-019-739-926 CSSS00965960715 MCULE-3291118230 PubChem-56689610
 25 27 0 0 0
SMALL
GASTEIGER

@<TRIPOS>ATOM
      1 C           8.5563   41.4415   12.4138 C.ar    1  UNL1        0.1725
      2 C           9.8823   41.3905   11.9530 C.ar    1  UNL1        0.0413
      3 C          10.1685   41.4913   10.5918 C.ar    1  UNL1        0.0180
      4 C           9.1336   41.6418    9.6627 C.ar    1  UNL1        0.0535
      5 C           7.8135   41.6974   10.1148 C.ar    1  UNL1        0.0547
      6 C           7.5065   41.6075   11.4771 C.ar    1  UNL1        0.1733
      7 C          10.5885   41.3774    7.5646 C.2     1  UNL1        0.2270
      8 O          11.5695   40.8954    8.1905 O.2     1  UNL1       -0.2747
      9 N           9.3850   41.7467    8.2552 N.am    1  UNL1       -0.2838
     10 H           8.6551   42.1104    7.7036 H       1  UNL1        0.1549
     11 C          10.7121   41.5877    6.0844 C.3     1  UNL1        0.0928
     12 C          11.6031   40.5635    5.3838 C.3     1  UNL1        0.0119
     13 C          10.8467   39.2679    5.1378 C.3     1  UNL1        0.0179
     14 C           9.5760   39.5605    4.3425 C.3     1  UNL1        0.0722
     15 C           8.1189   39.8683    6.2274 C.3     1  UNL1        0.0896
     16 C           9.3512   41.7582    5.3856 C.3     1  UNL1        0.0812
     17 N           8.6817   40.4943    5.0382 N.3     1  UNL1       -0.2711
     18 C           9.2480   40.8935   14.7308 C.3     1  UNL1        0.2526
     19 O           8.2796   41.3156   13.7799 O.3     1  UNL1       -0.4684
     20 O           6.1508   41.6784   11.8341 O.3     1  UNL1       -0.4761
     21 C           5.0702   41.2185   11.0314 C.3     1  UNL1        0.1660
     22 C           5.0058   42.0279    9.7480 C.3     1  UNL1        0.0435
     23 C           3.6559   42.7165    9.7290 C.3     1  UNL1        0.0038
     24 C           2.7943   41.9572   10.7096 C.3     1  UNL1        0.0038
     25 C           3.7539   41.4408   11.7548 C.3     1  UNL1        0.0435
@<TRIPOS>BOND
     1    18    19    1
     2     1    19    1
     3     2     3   ar
     4     4     9    1
     5     4     5   ar
     6    11     7    1
     7    11    12    1
     8    12    13    1
     9    13    14    1
    10    14    17    1
    11    15    17    1
    12    16    17    1
    13    16    11    1
    14     6    20    1
    15     6     1   ar
    16    21    20    1
    17    21    22    1
    18    22    23    1
    19    23    24    1
    20    24    25    1
    21    25    21    1
    22     9     7   am
    23     1     2   ar
    24     3     4   ar
    25     7     8    2
    26     5     6   ar
    27     9    10    1
@<TRIPOS>MOLECULE
MolPort-019-739-926 CSSS00965960715 MCULE-3291118230 PubChem-56689610
 25 27 0 0 0
SMALL
GASTEIGER

@<TRIPOS>ATOM
      1 C          15.4025   39.8164   10.2324 C.ar    1  UNL1        0.1725
      2 C          14.3089   39.2633   10.9190 C.ar    1  UNL1        0.0413
      3 C          13.0015   39.5719   10.5441 C.ar    1  UNL1        0.0180
      4 C          12.7610   40.4433    9.4765 C.ar    1  UNL1        0.0535
      5 C          13.8439   40.9933    8.7874 C.ar    1  UNL1        0.0547
      6 C          15.1628   40.6886    9.1422 C.ar    1  UNL1        0.1733
      7 C          10.9977   41.0875    7.7260 C.2     1  UNL1        0.2270
      8 O          11.8072   41.0572    6.7615 O.2     1  UNL1       -0.2747
      9 N          11.4329   40.7881    9.0612 N.am    1  UNL1       -0.2838
     10 H          10.7465   40.8234    9.7661 H       1  UNL1        0.1549
     11 C           9.5729   41.4730    7.4579 C.3     1  UNL1        0.0928
     12 C           9.2542   41.6837    5.9789 C.3     1  UNL1        0.0119
     13 C           9.0268   40.3527    5.2802 C.3     1  UNL1        0.0179
     14 C           7.9231   39.5795    5.9993 C.3     1  UNL1        0.0722
     15 C           9.3514   38.3664    7.5023 C.3     1  UNL1        0.0896
     16 C           8.5585   40.5457    8.1513 C.3     1  UNL1        0.0812
     17 N           8.2494   39.3147    7.4061 N.3     1  UNL1       -0.2711
     18 C          17.1153   38.2212   11.0504 C.3     1  UNL1        0.2526
     19 O          16.7099   39.5179   10.6327 O.3     1  UNL1       -0.4684
     20 O          16.1837   41.2868    8.3869 O.3     1  UNL1       -0.4761
     21 C          16.4114   42.6874    8.2867 C.3     1  UNL1        0.1660
     22 C          15.8477   43.2047    6.9748 C.3     1  UNL1        0.0435
     23 C          17.0099   43.7863    6.1952 C.3     1  UNL1        0.0038
     24 C          18.1013   44.0334    7.2092 C.3     1  UNL1        0.0038
     25 C          17.9027   42.9713    8.2639 C.3     1  UNL1        0.0435
@<TRIPOS>BOND
     1    18    19    1
     2     1    19    1
     3     2     3   ar
     4     4     9    1
     5     4     5   ar
     6    11     7    1
     7    11    12    1
     8    12    13    1
     9    13    14    1
    10    14    17    1
    11    15    17    1
    12    16    17    1
    13    16    11    1
    14     6    20    1
    15     6     1   ar
    16    21    20    1
    17    21    22    1
    18    22    23    1
    19    23    24    1
    20    24    25    1
    21    25    21    1
    22     9     7   am
    23     1     2   ar
    24     3     4   ar
    25     7     8    2
    26     5     6   ar
    27     9    10    1
@<TRIPOS>MOLECULE
MolPort-019-739-926 CSSS00965960715 MCULE-3291118230 PubChem-56689610
 25 27 0 0 0
SMALL
GASTEIGER

@<TRIPOS>ATOM
      1 C          13.4306   36.7681   10.2353 C.ar    1  UNL1        0.1725
      2 C          12.0874   36.7409    9.8249 C.ar    1  UNL1        0.0413
      3 C          11.3327   37.9127    9.7769 C.ar    1  UNL1        0.0180
      4 C          11.9050   39.1358   10.1419 C.ar    1  UNL1        0.0535
      5 C          13.2411   39.1701   10.5468 C.ar    1  UNL1        0.0547
      6 C          14.0176   38.0069   10.5927 C.ar    1  UNL1        0.1733
      7 C          11.0279   41.2580    8.9949 C.2     1  UNL1        0.2270
      8 O          11.5830   41.0055    7.8927 O.2     1  UNL1       -0.2747
      9 N          11.1633   40.3622   10.1088 N.am    1  UNL1       -0.2838
     10 H          10.6973   40.6172   10.9378 H       1  UNL1        0.1549
     11 C          10.2457   42.5307    9.1319 C.3     1  UNL1        0.0928
     12 C           8.8924   42.5073    8.4236 C.3     1  UNL1        0.0119
     13 C           7.8556   41.7783    9.2631 C.3     1  UNL1        0.0179
     14 C           7.7682   42.4258   10.6438 C.3     1  UNL1        0.0722
     15 C           9.3952   41.0266   11.7235 C.3     1  UNL1        0.0896
     16 C          10.1381   43.0164   10.5886 C.3     1  UNL1        0.0812
     17 N           9.0496   42.3945   11.3598 N.3     1  UNL1       -0.2711
     18 C          14.5720   34.8534    9.1497 C.3     1  UNL1        0.2526
     19 O          14.1712   35.5825   10.3021 O.3     1  UNL1       -0.4684
     20 O          15.3515   38.1433   11.0081 O.3     1  UNL1       -0.4761
     21 C          16.4573   38.3680   10.1419 C.3     1  UNL1        0.1660
     22 C          17.3188   37.1189   10.0777 C.3     1  UNL1        0.0435
     23 C          18.6910   37.5037   10.5932 C.3     1  UNL1        0.0038
     24 C          18.7572   39.0094   10.4991 C.3     1  UNL1        0.0038
     25 C          17.3348   39.4763   10.6959 C.3     1  UNL1        0.0435
@<TRIPOS>BOND
     1    18    19    1
     2     1    19    1
     3     2     3   ar
     4     4     9    1
     5     4     5   ar
     6    11     7    1
     7    11    12    1
     8    12    13    1
     9    13    14    1
    10    14    17    1
    11    15    17    1
    12    16    17    1
    13    16    11    1
    14     6    20    1
    15     6     1   ar
    16    21    20    1
    17    21    22    1
    18    22    23    1
    19    23    24    1
    20    24    25    1
    21    25    21    1
    22     9     7   am
    23     1     2   ar
    24     3     4   ar
    25     7     8    2
    26     5     6   ar
    27     9    10    1
@<TRIPOS>MOLECULE
MolPort-019-739-926 CSSS00965960715 MCULE-3291118230 PubChem-56689610
 25 27 0 0 0
SMALL
GASTEIGER

@<TRIPOS>ATOM
      1 C           5.8324   43.6167    8.6920 C.ar    1  UNL1        0.1725
      2 C           6.9764   44.4316    8.6654 C.ar    1  UNL1        0.0413
      3 C           8.2285   43.8933    8.3699 C.ar    1  UNL1        0.0180
      4 C           8.3629   42.5276    8.0982 C.ar    1  UNL1        0.0535
      5 C           7.2288   41.7130    8.1190 C.ar    1  UNL1        0.0547
      6 C           5.9624   42.2358    8.4041 C.ar    1  UNL1        0.1733
      7 C          10.1322   41.5926    6.4909 C.2     1  UNL1        0.2270
      8 O           9.4467   41.8132    5.4575 O.2     1  UNL1       -0.2747
      9 N           9.6318   41.9346    7.7925 N.am    1  UNL1       -0.2838
     10 H          10.2227   41.7415    8.5559 H       1  UNL1        0.1549
     11 C          11.4725   40.9360    6.3387 C.3     1  UNL1        0.0928
     12 C          12.6542   41.8866    6.5219 C.3     1  UNL1        0.0119
     13 C          12.9353   42.1212    7.9974 C.3     1  UNL1        0.0179
     14 C          13.1650   40.7813    8.6938 C.3     1  UNL1        0.0722
     15 C          10.8857   40.4018    9.3507 C.3     1  UNL1        0.0896
     16 C          11.6133   39.6547    7.1801 C.3     1  UNL1        0.0812
     17 N          12.0082   39.8844    8.5792 N.3     1  UNL1       -0.2711
     18 C           3.7246   44.7512    8.0460 C.3     1  UNL1        0.2526
     19 O           4.5848   44.1638    9.0129 O.3     1  UNL1       -0.4684
     20 O           4.8828   41.3388    8.3966 O.3     1  UNL1       -0.4761
     21 C           4.2723   40.7865    9.5567 C.3     1  UNL1        0.1660
     22 C           2.8306   41.2552    9.6483 C.3     1  UNL1        0.0435
     23 C           2.7006   42.0281   10.9454 C.3     1  UNL1        0.0038
     24 C           3.8793   41.6102   11.7918 C.3     1  UNL1        0.0038
     25 C           4.9758   41.2903   10.8042 C.3     1  UNL1        0.0435
@<TRIPOS>BOND
     1    18    19    1
     2     1    19    1
     3     2     3   ar
     4     4     9    1
     5     4     5   ar
     6    11     7    1
     7    11    12    1
     8    12    13    1
     9    13    14    1
    10    14    17    1
    11    15    17    1
    12    16    17    1
    13    16    11    1
    14     6    20    1
    15     6     1   ar
    16    21    20    1
    17    21    22    1
    18    22    23    1
    19    23    24    1
    20    24    25    1
    21    25    21    1
    22     9     7   am
    23     1     2   ar
    24     3     4   ar
    25     7     8    2
    26     5     6   ar
    27     9    10    1
@<TRIPOS>MOLECULE
MolPort-019-739-926 CSSS00965960715 MCULE-3291118230 PubChem-56689610
 25 27 0 0 0
SMALL
GASTEIGER

@<TRIPOS>ATOM
      1 C           6.0922   43.7687    8.8170 C.ar    1  UNL1        0.1725
      2 C           7.1931   44.6274    8.9717 C.ar    1  UNL1        0.0413
      3 C           8.4953   44.1288    8.9471 C.ar    1  UNL1        0.0180
      4 C           8.7232   42.7600    8.7706 C.ar    1  UNL1        0.0535
      5 C           7.6332   41.9016    8.6121 C.ar    1  UNL1        0.0547
      6 C           6.3195   42.3837    8.6246 C.ar    1  UNL1        0.1733
      7 C          10.7837   41.6791    9.8544 C.2     1  UNL1        0.2270
      8 O          10.2817   41.6566   11.0094 O.2     1  UNL1       -0.2747
      9 N          10.0457   42.2071    8.7417 N.am    1  UNL1       -0.2838
     10 H          10.4954   42.1873    7.8661 H       1  UNL1        0.1549
     11 C          12.1827   41.1706    9.6678 C.3     1  UNL1        0.0928
     12 C          12.5997   40.1115   10.6866 C.3     1  UNL1        0.0119
     13 C          12.0511   38.7466   10.3027 C.3     1  UNL1        0.0179
     14 C          12.5065   38.3915    8.8887 C.3     1  UNL1        0.0722
     15 C          10.6073   39.3039    7.7349 C.3     1  UNL1        0.0896
     16 C          12.4780   40.7409    8.2194 C.3     1  UNL1        0.0812
     17 N          12.0544   39.3700    7.8917 N.3     1  UNL1       -0.2711
     18 C           4.1306   44.8330    7.7370 C.3     1  UNL1        0.2526
     19 O           4.7893   44.2772    8.8672 O.3     1  UNL1       -0.4684
     20 O           5.2909   41.4442    8.4526 O.3     1  UNL1       -0.4761
     21 C           4.5367   40.8574    9.5064 C.3     1  UNL1        0.1660
     22 C           3.0942   41.3257    9.4252 C.3     1  UNL1        0.0435
     23 C           2.7959   42.0583   10.7179 C.3     1  UNL1        0.0038
     24 C           3.8562   41.6124   11.6963 C.3     1  UNL1        0.0038
     25 C           5.0719   41.3212   10.8494 C.3     1  UNL1        0.0435
@<TRIPOS>BOND
     1    18    19    1
     2     1    19    1
     3     2     3   ar
     4     4     9    1
     5     4     5   ar
     6    11     7    1
     7    11    12    1
     8    12    13    1
     9    13    14    1
    10    14    17    1
    11    15    17    1
    12    16    17    1
    13    16    11    1
    14     6    20    1
    15     6     1   ar
    16    21    20    1
    17    21    22    1
    18    22    23    1
    19    23    24    1
    20    24    25    1
    21    25    21    1
    22     9     7   am
    23     1     2   ar
    24     3     4   ar
    25     7     8    2
    26     5     6   ar
    27     9    10    1
@<TRIPOS>MOLECULE
MolPort-019-739-926 CSSS00965960715 MCULE-3291118230 PubChem-56689610
 25 27 0 0 0
SMALL
GASTEIGER

@<TRIPOS>ATOM
      1 C          10.2864   41.2029    6.8758 C.ar    1  UNL1        0.1725
      2 C           9.6934   39.9806    7.2330 C.ar    1  UNL1        0.0413
      3 C          10.4647   38.9351    7.7396 C.ar    1  UNL1        0.0180
      4 C          11.8462   39.0893    7.8962 C.ar    1  UNL1        0.0535
      5 C          12.4411   40.3035    7.5468 C.ar    1  UNL1        0.0547
      6 C          11.6831   41.3676    7.0456 C.ar    1  UNL1        0.1733
      7 C          12.4160   37.2233    9.5641 C.2     1  UNL1        0.2270
      8 O          11.3671   37.3807   10.2434 O.2     1  UNL1       -0.2747
      9 N          12.6749   38.0388    8.4110 N.am    1  UNL1       -0.2838
     10 H          13.5100   37.8574    7.9222 H       1  UNL1        0.1549
     11 C          13.4074   36.1856   10.0009 C.3     1  UNL1        0.0928
     12 C          14.5300   35.9367    8.9951 C.3     1  UNL1        0.0119
     13 C          15.6020   37.0090    9.1054 C.3     1  UNL1        0.0179
     14 C          16.1216   37.0672   10.5406 C.3     1  UNL1        0.0722
     15 C          14.5908   38.7393   11.3354 C.3     1  UNL1        0.0896
     16 C          13.9378   36.4231   11.4264 C.3     1  UNL1        0.0812
     17 N          15.0606   37.3711   11.5090 N.3     1  UNL1       -0.2711
     18 C           8.0851   42.2363    6.3919 C.3     1  UNL1        0.2526
     19 O           9.5057   42.2368    6.3462 O.3     1  UNL1       -0.4684
     20 O          12.3704   42.5495    6.7273 O.3     1  UNL1       -0.4761
     21 C          13.6450   42.6084    6.0985 C.3     1  UNL1        0.1660
     22 C          14.7365   42.4055    7.1349 C.3     1  UNL1        0.0435
     23 C          15.5850   43.6611    7.1322 C.3     1  UNL1        0.0038
     24 C          15.2930   44.3507    5.8208 C.3     1  UNL1        0.0038
     25 C          13.8645   43.9848    5.4964 C.3     1  UNL1        0.0435
@<TRIPOS>BOND
     1    18    19    1
     2     1    19    1
     3     2     3   ar
     4     4     9    1
     5     4     5   ar
     6    11     7    1
     7    11    12    1
     8    12    13    1
     9    13    14    1
    10    14    17    1
    11    15    17    1
    12    16    17    1
    13    16    11    1
    14     6    20    1
    15     6     1   ar
    16    21    20    1
    17    21    22    1
    18    22    23    1
    19    23    24    1
    20    24    25    1
    21    25    21    1
    22     9     7   am
    23     1     2   ar
    24     3     4   ar
    25     7     8    2
    26     5     6   ar
    27     9    10    1
