@<TRIPOS>MOLECULE
MolPort-020-292-548 MCULE-9838256581 PubChem-110265016
 34 38 0 0 0
SMALL
GASTEIGER

@<TRIPOS>ATOM
      1 C          12.3165   38.0758    9.0868 C.3     1  UNL1        0.0563
      2 C          11.3456   37.2561    9.9435 C.3     1  UNL1        0.0087
      3 C          12.0106   36.0267   10.5682 C.3     1  UNL1        0.0178
      4 C          13.1879   35.5570    9.7147 C.3     1  UNL1        0.0724
      5 C          13.7497   37.9623    9.6162 C.3     1  UNL1        0.0783
      6 N          14.2498   36.5733    9.6319 N.3     1  UNL1       -0.2685
      7 C           9.8656   41.9066   11.0214 C.3     1  UNL1        0.0521
      8 C          10.7183   41.3490    9.9396 C.ar    1  UNL1        0.0602
      9 C          11.1204   42.1628    8.8792 C.ar    1  UNL1        0.0294
     10 C          11.9231   41.6299    7.8625 C.ar    1  UNL1        0.0528
     11 C          12.3120   40.2903    7.9358 C.ar    1  UNL1        0.0294
     12 C          11.8892   39.5034    9.0103 C.ar    1  UNL1        0.0608
     13 N          11.1063   40.0471    9.9836 N.ar    1  UNL1       -0.2539
     14 N          12.3700   42.4179    6.7501 N.pl3   1  UNL1       -0.2825
     15 H          11.7299   42.5322    6.0109 H       1  UNL1        0.1551
     16 C          13.6437   43.0580    6.5930 C.ar    1  UNL1        0.2207
     17 C          15.9515   43.2174    7.0996 C.ar    1  UNL1        0.1034
     18 C          16.0653   44.3401    6.2822 C.ar    1  UNL1        0.0414
     19 C          14.9246   44.7974    5.6259 C.ar    1  UNL1        0.1034
     20 N          14.7498   42.5995    7.2404 N.ar    1  UNL1       -0.2120
     21 N          13.7402   44.1526    5.7927 N.ar    1  UNL1       -0.2120
     22 C          14.9490   36.3477    8.3748 C.3     1  UNL1        0.1023
     23 C          16.1947   35.5533    8.6050 C.ar    1  UNL1        0.0311
     24 C          16.1690   34.1650    8.4198 C.ar    1  UNL1        0.0401
     25 C          17.3268   33.4115    8.6196 C.ar    1  UNL1        0.1723
     26 C          18.5096   34.0381    9.0300 C.ar    1  UNL1        0.1754
     27 C          18.5454   35.4233    9.1997 C.ar    1  UNL1        0.0766
     28 C          17.3885   36.1932    8.9859 C.ar    1  UNL1        0.1392
     29 C          19.5500   31.8358    9.3667 C.3     1  UNL1        0.2526
     30 C          18.5517   31.2977    8.3393 C.3     1  UNL1        0.2526
     31 O          19.6461   33.2585    9.2637 O.3     1  UNL1       -0.4683
     32 O          17.3254   32.0292    8.4127 O.3     1  UNL1       -0.4684
     33 C          17.3339   38.2047   10.4307 C.3     1  UNL1        0.2525
     34 O          17.4035   37.5830    9.1548 O.3     1  UNL1       -0.4716
@<TRIPOS>BOND
     1     7     8    1
     2     8    13   ar
     3     9    10   ar
     4    10    14    1
     5    11    12   ar
     6     1    12    1
     7     1     2    1
     8     2     3    1
     9     3     4    1
    10     4     6    1
    11     5     6    1
    12     5     1    1
    13    22     6    1
    14    22    23    1
    15    24    25   ar
    16    25    32    1
    17    26    27   ar
    18    26    31    1
    19    28    34    1
    20    28    23   ar
    21    33    34    1
    22    29    31    1
    23    29    30    1
    24    30    32    1
    25    16    21   ar
    26    17    20   ar
    27    18    19   ar
    28    14    16    1
    29     8     9   ar
    30    10    11   ar
    31    12    13   ar
    32    23    24   ar
    33    25    26   ar
    34    27    28   ar
    35    16    20   ar
    36    17    18   ar
    37    19    21   ar
    38    14    15    1
@<TRIPOS>MOLECULE
MolPort-020-292-548 MCULE-9838256581 PubChem-110265016
 34 38 0 0 0
SMALL
GASTEIGER

@<TRIPOS>ATOM
      1 C          10.8789   41.3597    9.8267 C.3     1  UNL1        0.0563
      2 C          11.2541   42.8199    9.5515 C.3     1  UNL1        0.0087
      3 C          10.2053   43.8031   10.0780 C.3     1  UNL1        0.0178
      4 C           8.8261   43.1469   10.1273 C.3     1  UNL1        0.0724
      5 C          10.0491   41.2360   11.1087 C.3     1  UNL1        0.0783
      6 N           8.7906   42.0061   11.0572 N.3     1  UNL1       -0.2685
      7 C          12.9902   37.0406   10.9722 C.3     1  UNL1        0.0521
      8 C          13.1128   38.4217   10.4378 C.ar    1  UNL1        0.0602
      9 C          14.3505   38.8906    9.9945 C.ar    1  UNL1        0.0294
     10 C          14.4586   40.1940    9.4931 C.ar    1  UNL1        0.0528
     11 C          13.3179   40.9984    9.4403 C.ar    1  UNL1        0.0294
     12 C          12.0950   40.4979    9.8950 C.ar    1  UNL1        0.0608
     13 N          12.0195   39.2273   10.3805 N.ar    1  UNL1       -0.2539
     14 N          15.7027   40.7297    9.0202 N.pl3   1  UNL1       -0.2825
     15 H          16.5110   40.2097    9.2334 H       1  UNL1        0.1551
     16 C          15.9020   41.9369    8.2722 C.ar    1  UNL1        0.2207
     17 C          15.2793   43.4121    6.5275 C.ar    1  UNL1        0.1034
     18 C          16.3431   44.2545    6.8443 C.ar    1  UNL1        0.0414
     19 C          17.1773   43.8958    7.9010 C.ar    1  UNL1        0.1034
     20 N          15.0784   42.2744    7.2423 N.ar    1  UNL1       -0.2120
     21 N          16.9441   42.7493    8.5919 N.ar    1  UNL1       -0.2120
     22 C           7.7493   41.1077   10.5790 C.3     1  UNL1        0.1023
     23 C           6.5597   41.8862   10.1158 C.ar    1  UNL1        0.0311
     24 C           6.7099   42.8235    9.0857 C.ar    1  UNL1        0.0401
     25 C           5.6063   43.5494    8.6347 C.ar    1  UNL1        0.1723
     26 C           4.3523   43.3608    9.2279 C.ar    1  UNL1        0.1754
     27 C           4.1934   42.4160   10.2433 C.ar    1  UNL1        0.0766
     28 C           5.2956   41.6685   10.6941 C.ar    1  UNL1        0.1392
     29 C           3.4740   45.2769    7.9619 C.3     1  UNL1        0.2526
     30 C           4.5777   45.0023    6.9381 C.3     1  UNL1        0.2526
     31 O           3.2699   44.1281    8.7881 O.3     1  UNL1       -0.4683
     32 O           5.7333   44.4686    7.5894 O.3     1  UNL1       -0.4684
     33 C           3.9648   39.9722   11.9140 C.3     1  UNL1        0.2525
     34 O           5.1570   40.7192   11.7139 O.3     1  UNL1       -0.4716
@<TRIPOS>BOND
     1     7     8    1
     2     8    13   ar
     3     9    10   ar
     4    10    14    1
     5    11    12   ar
     6     1    12    1
     7     1     2    1
     8     2     3    1
     9     3     4    1
    10     4     6    1
    11     5     6    1
    12     5     1    1
    13    22     6    1
    14    22    23    1
    15    24    25   ar
    16    25    32    1
    17    26    27   ar
    18    26    31    1
    19    28    34    1
    20    28    23   ar
    21    33    34    1
    22    29    31    1
    23    29    30    1
    24    30    32    1
    25    16    21   ar
    26    17    20   ar
    27    18    19   ar
    28    14    16    1
    29     8     9   ar
    30    10    11   ar
    31    12    13   ar
    32    23    24   ar
    33    25    26   ar
    34    27    28   ar
    35    16    20   ar
    36    17    18   ar
    37    19    21   ar
    38    14    15    1
@<TRIPOS>MOLECULE
MolPort-020-292-548 MCULE-9838256581 PubChem-110265016
 34 38 0 0 0
SMALL
GASTEIGER

@<TRIPOS>ATOM
      1 C           9.1992   40.8809    7.4967 C.3     1  UNL1        0.0563
      2 C           8.4350   39.6575    6.9793 C.3     1  UNL1        0.0087
      3 C           7.1694   40.0408    6.2078 C.3     1  UNL1        0.0178
      4 C           6.6345   41.3908    6.6839 C.3     1  UNL1        0.0724
      5 C           9.0042   42.0852    6.5698 C.3     1  UNL1        0.0783
      6 N           7.5892   42.4828    6.4315 N.3     1  UNL1       -0.2685
      7 C          12.7544   37.8744    9.1537 C.3     1  UNL1        0.0521
      8 C          12.3607   39.1279    8.4595 C.ar    1  UNL1        0.0602
      9 C          13.3419   39.9904    7.9678 C.ar    1  UNL1        0.0294
     10 C          12.9632   41.1707    7.3156 C.ar    1  UNL1        0.0528
     11 C          11.6046   41.4573    7.1640 C.ar    1  UNL1        0.0294
     12 C          10.6487   40.5729    7.6708 C.ar    1  UNL1        0.0608
     13 N          11.0456   39.4336    8.3035 N.ar    1  UNL1       -0.2539
     14 N          13.9259   42.0936    6.7866 N.pl3   1  UNL1       -0.2825
     15 H          13.6942   42.5242    5.9321 H       1  UNL1        0.1551
     16 C          15.1875   42.4599    7.3617 C.ar    1  UNL1        0.2207
     17 C          17.0015   43.9676    7.5723 C.ar    1  UNL1        0.1034
     18 C          17.6275   43.1071    8.4719 C.ar    1  UNL1        0.0414
     19 C          16.9887   41.9121    8.7961 C.ar    1  UNL1        0.1034
     20 N          15.7997   43.6311    7.0356 N.ar    1  UNL1       -0.2120
     21 N          15.7872   41.6106    8.2377 N.ar    1  UNL1       -0.2120
     22 C           7.3254   43.5093    7.4299 C.3     1  UNL1        0.1023
     23 C           6.1850   43.1037    8.3077 C.ar    1  UNL1        0.0311
     24 C           6.3477   42.0328    9.1958 C.ar    1  UNL1        0.0401
     25 C           5.2959   41.6500   10.0297 C.ar    1  UNL1        0.1723
     26 C           4.0680   42.3191    9.9624 C.ar    1  UNL1        0.1754
     27 C           3.9055   43.3978    9.0913 C.ar    1  UNL1        0.0766
     28 C           4.9639   43.8011    8.2583 C.ar    1  UNL1        0.1392
     29 C           3.0776   40.6350   11.4554 C.3     1  UNL1        0.2526
     30 C           4.4932   40.3870   11.9810 C.3     1  UNL1        0.2526
     31 O           3.0158   41.8923   10.7776 O.3     1  UNL1       -0.4683
     32 O           5.4506   40.6014   10.9409 O.3     1  UNL1       -0.4684
     33 C           3.5735   45.5218    7.1436 C.3     1  UNL1        0.2525
     34 O           4.8189   44.8780    7.3753 O.3     1  UNL1       -0.4716
@<TRIPOS>BOND
     1     7     8    1
     2     8    13   ar
     3     9    10   ar
     4    10    14    1
     5    11    12   ar
     6     1    12    1
     7     1     2    1
     8     2     3    1
     9     3     4    1
    10     4     6    1
    11     5     6    1
    12     5     1    1
    13    22     6    1
    14    22    23    1
    15    24    25   ar
    16    25    32    1
    17    26    27   ar
    18    26    31    1
    19    28    34    1
    20    28    23   ar
    21    33    34    1
    22    29    31    1
    23    29    30    1
    24    30    32    1
    25    16    21   ar
    26    17    20   ar
    27    18    19   ar
    28    14    16    1
    29     8     9   ar
    30    10    11   ar
    31    12    13   ar
    32    23    24   ar
    33    25    26   ar
    34    27    28   ar
    35    16    20   ar
    36    17    18   ar
    37    19    21   ar
    38    14    15    1
@<TRIPOS>MOLECULE
MolPort-020-292-548 MCULE-9838256581 PubChem-110265016
 34 38 0 0 0
SMALL
GASTEIGER

@<TRIPOS>ATOM
      1 C          11.2986   40.8577   10.2158 C.3     1  UNL1        0.0563
      2 C          10.8145   41.0327   11.6592 C.3     1  UNL1        0.0087
      3 C           9.3207   41.3580   11.7405 C.3     1  UNL1        0.0178
      4 C           8.8500   42.0577   10.4661 C.3     1  UNL1        0.0724
      5 C          10.1791   40.3164    9.3207 C.3     1  UNL1        0.0783
      6 N           8.9968   41.1996    9.2789 N.3     1  UNL1       -0.2685
      7 C          13.3231   36.3701   10.6481 C.3     1  UNL1        0.0521
      8 C          13.4764   37.8193   10.3572 C.ar    1  UNL1        0.0602
      9 C          14.7293   38.3341   10.0201 C.ar    1  UNL1        0.0294
     10 C          14.8664   39.7013    9.7484 C.ar    1  UNL1        0.0528
     11 C          13.7389   40.5233    9.8139 C.ar    1  UNL1        0.0294
     12 C          12.5002   39.9752   10.1571 C.ar    1  UNL1        0.0608
     13 N          12.3966   38.6424   10.4192 N.ar    1  UNL1       -0.2539
     14 N          16.1271   40.2869    9.3935 N.pl3   1  UNL1       -0.2825
     15 H          16.9301   39.7633    9.6177 H       1  UNL1        0.1551
     16 C          16.3499   41.5485    8.7492 C.ar    1  UNL1        0.2207
     17 C          15.7885   43.1536    7.1011 C.ar    1  UNL1        0.1034
     18 C          16.8358   43.9702    7.5227 C.ar    1  UNL1        0.0414
     19 C          17.6304   43.5318    8.5799 C.ar    1  UNL1        0.1034
     20 N          15.5650   41.9638    7.7176 N.ar    1  UNL1       -0.2120
     21 N          17.3757   42.3350    9.1707 N.ar    1  UNL1       -0.2120
     22 C           9.1570   42.0882    8.1366 C.3     1  UNL1        0.1023
     23 C           9.7124   41.3407    6.9668 C.ar    1  UNL1        0.0311
     24 C           8.8861   40.4581    6.2594 C.ar    1  UNL1        0.0401
     25 C           9.3871   39.7619    5.1583 C.ar    1  UNL1        0.1723
     26 C          10.7234   39.9249    4.7739 C.ar    1  UNL1        0.1754
     27 C          11.5467   40.8158    5.4648 C.ar    1  UNL1        0.0766
     28 C          11.0473   41.5334    6.5658 C.ar    1  UNL1        0.1392
     29 C          10.4770   38.0820    3.1648 C.3     1  UNL1        0.2526
     30 C           8.9813   38.4050    3.1480 C.3     1  UNL1        0.2526
     31 O          11.2148   39.1868    3.6934 O.3     1  UNL1       -0.4683
     32 O           8.5685   38.8984    4.4249 O.3     1  UNL1       -0.4684
     33 C          12.8671   43.2120    6.6506 C.3     1  UNL1        0.2525
     34 O          11.8586   42.4285    7.2737 O.3     1  UNL1       -0.4716
@<TRIPOS>BOND
     1     7     8    1
     2     8    13   ar
     3     9    10   ar
     4    10    14    1
     5    11    12   ar
     6     1    12    1
     7     1     2    1
     8     2     3    1
     9     3     4    1
    10     4     6    1
    11     5     6    1
    12     5     1    1
    13    22     6    1
    14    22    23    1
    15    24    25   ar
    16    25    32    1
    17    26    27   ar
    18    26    31    1
    19    28    34    1
    20    28    23   ar
    21    33    34    1
    22    29    31    1
    23    29    30    1
    24    30    32    1
    25    16    21   ar
    26    17    20   ar
    27    18    19   ar
    28    14    16    1
    29     8     9   ar
    30    10    11   ar
    31    12    13   ar
    32    23    24   ar
    33    25    26   ar
    34    27    28   ar
    35    16    20   ar
    36    17    18   ar
    37    19    21   ar
    38    14    15    1
@<TRIPOS>MOLECULE
MolPort-020-292-548 MCULE-9838256581 PubChem-110265016
 34 38 0 0 0
SMALL
GASTEIGER

@<TRIPOS>ATOM
      1 C          10.7553   41.3038    9.3802 C.3     1  UNL1        0.0563
      2 C          10.3882   41.9951    8.0627 C.3     1  UNL1        0.0087
      3 C          11.1672   41.4342    6.8701 C.3     1  UNL1        0.0178
      4 C          12.5071   40.8561    7.3237 C.3     1  UNL1        0.0724
      5 C          11.1698   39.8482    9.1420 C.3     1  UNL1        0.0783
      6 N          12.3349   39.7202    8.2444 N.3     1  UNL1       -0.2685
      7 C           9.1415   41.1494   14.0489 C.3     1  UNL1        0.0521
      8 C           8.8522   41.3168   12.6009 C.ar    1  UNL1        0.0602
      9 C           7.5455   41.5599   12.1745 C.ar    1  UNL1        0.0294
     10 C           7.2802   41.7154   10.8080 C.ar    1  UNL1        0.0528
     11 C           8.3357   41.6306    9.8971 C.ar    1  UNL1        0.0294
     12 C           9.6314   41.3836   10.3583 C.ar    1  UNL1        0.0608
     13 N           9.8601   41.2334   11.6929 N.ar    1  UNL1       -0.2539
     14 N           5.9588   41.9702   10.3107 N.pl3   1  UNL1       -0.2825
     15 H           5.2338   41.4308   10.7014 H       1  UNL1        0.1551
     16 C           5.5746   42.9218    9.3090 C.ar    1  UNL1        0.2207
     17 C           6.0621   44.1882    7.3682 C.ar    1  UNL1        0.1034
     18 C           4.8009   44.7780    7.4220 C.ar    1  UNL1        0.0414
     19 C           3.9411   44.4054    8.4531 C.ar    1  UNL1        0.1034
     20 N           6.4253   43.2759    8.3071 N.ar    1  UNL1       -0.2120
     21 N           4.3411   43.4897    9.3739 N.ar    1  UNL1       -0.2120
     22 C          13.5261   39.6739    9.0804 C.3     1  UNL1        0.1023
     23 C          14.5230   40.6917    8.6266 C.ar    1  UNL1        0.0311
     24 C          14.1435   41.6511    7.6790 C.ar    1  UNL1        0.0401
     25 C          15.0596   42.6147    7.2543 C.ar    1  UNL1        0.1723
     26 C          16.3669   42.6090    7.7552 C.ar    1  UNL1        0.1754
     27 C          16.7456   41.6657    8.7122 C.ar    1  UNL1        0.0766
     28 C          15.8257   40.7005    9.1580 C.ar    1  UNL1        0.1392
     29 C          16.9926   44.3353    6.1199 C.3     1  UNL1        0.2526
     30 C          15.5168   44.7396    6.1041 C.3     1  UNL1        0.2526
     31 O          17.2791   43.5580    7.2851 O.3     1  UNL1       -0.4683
     32 O          14.6892   43.5957    6.3302 O.3     1  UNL1       -0.4684
     33 C          17.5178   39.5991   10.5935 C.3     1  UNL1        0.2525
     34 O          16.1879   39.7439   10.1142 O.3     1  UNL1       -0.4716
@<TRIPOS>BOND
     1     7     8    1
     2     8    13   ar
     3     9    10   ar
     4    10    14    1
     5    11    12   ar
     6     1    12    1
     7     1     2    1
     8     2     3    1
     9     3     4    1
    10     4     6    1
    11     5     6    1
    12     5     1    1
    13    22     6    1
    14    22    23    1
    15    24    25   ar
    16    25    32    1
    17    26    27   ar
    18    26    31    1
    19    28    34    1
    20    28    23   ar
    21    33    34    1
    22    29    31    1
    23    29    30    1
    24    30    32    1
    25    16    21   ar
    26    17    20   ar
    27    18    19   ar
    28    14    16    1
    29     8     9   ar
    30    10    11   ar
    31    12    13   ar
    32    23    24   ar
    33    25    26   ar
    34    27    28   ar
    35    16    20   ar
    36    17    18   ar
    37    19    21   ar
    38    14    15    1
@<TRIPOS>MOLECULE
MolPort-020-292-548 MCULE-9838256581 PubChem-110265016
 34 38 0 0 0
SMALL
GASTEIGER

@<TRIPOS>ATOM
      1 C           9.5104   40.5744    7.3487 C.3     1  UNL1        0.0563
      2 C           8.8751   39.2399    6.9437 C.3     1  UNL1        0.0087
      3 C           7.6444   39.4240    6.0519 C.3     1  UNL1        0.0178
      4 C           6.9812   40.7748    6.3184 C.3     1  UNL1        0.0724
      5 C           9.2972   41.6375    6.2662 C.3     1  UNL1        0.0783
      6 N           7.8710   41.9008    5.9901 N.3     1  UNL1       -0.2685
      7 C          13.1496   38.0475    9.5384 C.3     1  UNL1        0.0521
      8 C          12.7148   39.1919    8.6961 C.ar    1  UNL1        0.0602
      9 C          13.6614   40.0829    8.1877 C.ar    1  UNL1        0.0294
     10 C          13.2440   41.1599    7.3955 C.ar    1  UNL1        0.0528
     11 C          11.8828   41.3159    7.1238 C.ar    1  UNL1        0.0294
     12 C          10.9618   40.4068    7.6511 C.ar    1  UNL1        0.0608
     13 N          11.3957   39.3701    8.4210 N.ar    1  UNL1       -0.2539
     14 N          14.1704   42.1057    6.8428 N.pl3   1  UNL1       -0.2825
     15 H          13.9063   42.5313    5.9952 H       1  UNL1        0.1551
     16 C          15.4377   42.5012    7.3852 C.ar    1  UNL1        0.2207
     17 C          17.3156   42.0804    8.7651 C.ar    1  UNL1        0.1034
     18 C          17.8576   43.3182    8.4249 C.ar    1  UNL1        0.0414
     19 C          17.1458   44.1316    7.5458 C.ar    1  UNL1        0.1034
     20 N          16.1220   41.6956    8.2429 N.ar    1  UNL1       -0.2120
     21 N          15.9545   43.7117    7.0450 N.ar    1  UNL1       -0.2120
     22 C           7.4630   43.0167    6.8317 C.3     1  UNL1        0.1023
     23 C           6.9391   42.5196    8.1409 C.ar    1  UNL1        0.0311
     24 C           5.6675   41.9344    8.1952 C.ar    1  UNL1        0.0401
     25 C           5.1696   41.4553    9.4079 C.ar    1  UNL1        0.1723
     26 C           5.9293   41.5813   10.5772 C.ar    1  UNL1        0.1754
     27 C           7.2040   42.1482   10.5259 C.ar    1  UNL1        0.0766
     28 C           7.7209   42.6198    9.3065 C.ar    1  UNL1        0.1392
     29 C           4.0044   40.8144   11.9009 C.3     1  UNL1        0.2526
     30 C           3.5186   40.1070   10.6340 C.3     1  UNL1        0.2526
     31 O           5.3938   41.1315   11.7875 O.3     1  UNL1       -0.4683
     32 O           3.9144   40.8441    9.4745 O.3     1  UNL1       -0.4684
     33 C           9.5533   43.9640   10.2924 C.3     1  UNL1        0.2525
     34 O           8.9955   43.1950    9.2356 O.3     1  UNL1       -0.4716
@<TRIPOS>BOND
     1     7     8    1
     2     8    13   ar
     3     9    10   ar
     4    10    14    1
     5    11    12   ar
     6     1    12    1
     7     1     2    1
     8     2     3    1
     9     3     4    1
    10     4     6    1
    11     5     6    1
    12     5     1    1
    13    22     6    1
    14    22    23    1
    15    24    25   ar
    16    25    32    1
    17    26    27   ar
    18    26    31    1
    19    28    34    1
    20    28    23   ar
    21    33    34    1
    22    29    31    1
    23    29    30    1
    24    30    32    1
    25    16    21   ar
    26    17    20   ar
    27    18    19   ar
    28    14    16    1
    29     8     9   ar
    30    10    11   ar
    31    12    13   ar
    32    23    24   ar
    33    25    26   ar
    34    27    28   ar
    35    16    20   ar
    36    17    18   ar
    37    19    21   ar
    38    14    15    1
@<TRIPOS>MOLECULE
MolPort-020-292-548 MCULE-9838256581 PubChem-110265016
 34 38 0 0 0
SMALL
GASTEIGER

@<TRIPOS>ATOM
      1 C           9.3887   40.6757    7.2909 C.3     1  UNL1        0.0563
      2 C           8.7283   39.3530    6.8872 C.3     1  UNL1        0.0087
      3 C           7.4483   39.5619    6.0738 C.3     1  UNL1        0.0178
      4 C           6.8044   40.9051    6.4152 C.3     1  UNL1        0.0724
      5 C           9.1151   41.7680    6.2520 C.3     1  UNL1        0.0783
      6 N           7.6758   42.0393    6.0665 N.3     1  UNL1       -0.2685
      7 C          13.1603   37.9671    8.9829 C.3     1  UNL1        0.0521
      8 C          12.6712   39.1981    8.3094 C.ar    1  UNL1        0.0602
      9 C          13.5810   40.1624    7.8725 C.ar    1  UNL1        0.0294
     10 C          13.1124   41.3207    7.2395 C.ar    1  UNL1        0.0528
     11 C          11.7379   41.4835    7.0516 C.ar    1  UNL1        0.0294
     12 C          10.8549   40.4993    7.5037 C.ar    1  UNL1        0.0608
     13 N          11.3383   39.3841    8.1189 N.ar    1  UNL1       -0.2539
     14 N          13.9992   42.3444    6.7664 N.pl3   1  UNL1       -0.2825
     15 H          13.6820   42.8777    6.0021 H       1  UNL1        0.1551
     16 C          15.2954   42.6787    7.2809 C.ar    1  UNL1        0.2207
     17 C          17.1446   42.2096    8.6839 C.ar    1  UNL1        0.1034
     18 C          17.7753   43.3787    8.2633 C.ar    1  UNL1        0.0414
     19 C          17.1210   44.1841    7.3336 C.ar    1  UNL1        0.1034
     20 N          15.9227   41.8818    8.1887 N.ar    1  UNL1       -0.2120
     21 N          15.8990   43.8226    6.8621 N.ar    1  UNL1       -0.2120
     22 C           7.3196   43.1320    6.9606 C.3     1  UNL1        0.1023
     23 C           7.3159   42.6649    8.3810 C.ar    1  UNL1        0.0311
     24 C           8.5346   42.4593    9.0404 C.ar    1  UNL1        0.0401
     25 C           8.5471   42.0346   10.3699 C.ar    1  UNL1        0.1723
     26 C           7.3423   41.7887   11.0393 C.ar    1  UNL1        0.1754
     27 C           6.1248   42.0080   10.3925 C.ar    1  UNL1        0.0766
     28 C           6.1013   42.4508    9.0583 C.ar    1  UNL1        0.1392
     29 C           8.5954   40.8341   12.9273 C.3     1  UNL1        0.2526
     30 C           9.7769   41.6934   12.4719 C.3     1  UNL1        0.2526
     31 O           7.3794   41.3246   12.3573 O.3     1  UNL1       -0.4683
     32 O           9.7538   41.8511   11.0510 O.3     1  UNL1       -0.4684
     33 C           3.7557   43.2469    9.0255 C.3     1  UNL1        0.2525
     34 O           4.8904   42.6727    8.3913 O.3     1  UNL1       -0.4716
@<TRIPOS>BOND
     1     7     8    1
     2     8    13   ar
     3     9    10   ar
     4    10    14    1
     5    11    12   ar
     6     1    12    1
     7     1     2    1
     8     2     3    1
     9     3     4    1
    10     4     6    1
    11     5     6    1
    12     5     1    1
    13    22     6    1
    14    22    23    1
    15    24    25   ar
    16    25    32    1
    17    26    27   ar
    18    26    31    1
    19    28    34    1
    20    28    23   ar
    21    33    34    1
    22    29    31    1
    23    29    30    1
    24    30    32    1
    25    16    21   ar
    26    17    20   ar
    27    18    19   ar
    28    14    16    1
    29     8     9   ar
    30    10    11   ar
    31    12    13   ar
    32    23    24   ar
    33    25    26   ar
    34    27    28   ar
    35    16    20   ar
    36    17    18   ar
    37    19    21   ar
    38    14    15    1
@<TRIPOS>MOLECULE
MolPort-020-292-548 MCULE-9838256581 PubChem-110265016
 34 38 0 0 0
SMALL
GASTEIGER

@<TRIPOS>ATOM
      1 C          11.6698   40.9915   10.1401 C.3     1  UNL1        0.0563
      2 C          11.8160   41.9327    8.9396 C.3     1  UNL1        0.0087
      3 C          12.6842   41.3350    7.8293 C.3     1  UNL1        0.0178
      4 C          13.6831   40.3322    8.4052 C.3     1  UNL1        0.0724
      5 C          11.7399   39.5249    9.7025 C.3     1  UNL1        0.0783
      6 N          13.0112   39.1831    9.0343 N.3     1  UNL1       -0.2685
      7 C           9.1574   41.0889   14.3949 C.3     1  UNL1        0.0521
      8 C           9.1961   41.3195   12.9274 C.ar    1  UNL1        0.0602
      9 C           8.0640   41.7996   12.2668 C.ar    1  UNL1        0.0294
     10 C           8.1077   42.0134   10.8832 C.ar    1  UNL1        0.0528
     11 C           9.2917   41.7470   10.1917 C.ar    1  UNL1        0.0294
     12 C          10.4056   41.2647   10.8841 C.ar    1  UNL1        0.0608
     13 N          10.3339   41.0632   12.2294 N.ar    1  UNL1       -0.2539
     14 N           6.9776   42.5082   10.1509 N.pl3   1  UNL1       -0.2825
     15 H           7.1534   43.2455    9.5227 H       1  UNL1        0.1551
     16 C           5.6209   42.0504   10.2305 C.ar    1  UNL1        0.2207
     17 C           3.5998   41.3893    9.1884 C.ar    1  UNL1        0.1034
     18 C           3.0060   41.1989   10.4345 C.ar    1  UNL1        0.0414
     19 C           3.7675   41.4492   11.5740 C.ar    1  UNL1        0.1034
     20 N           4.8892   41.8096    9.1083 N.ar    1  UNL1       -0.2120
     21 N           5.0541   41.8692   11.4528 N.ar    1  UNL1       -0.2120
     22 C          13.9171   38.6750   10.0548 C.3     1  UNL1        0.1023
     23 C          14.5580   37.4036    9.5984 C.ar    1  UNL1        0.0311
     24 C          15.9350   37.3811    9.3418 C.ar    1  UNL1        0.0401
     25 C          16.5495   36.1988    8.9264 C.ar    1  UNL1        0.1723
     26 C          15.7870   35.0394    8.7407 C.ar    1  UNL1        0.1754
     27 C          14.4175   35.0517    9.0111 C.ar    1  UNL1        0.0766
     28 C          13.7917   36.2336    9.4450 C.ar    1  UNL1        0.1392
     29 C          17.7387   33.9252    7.7430 C.3     1  UNL1        0.2526
     30 C          18.6031   34.9013    8.5440 C.3     1  UNL1        0.2526
     31 O          16.4164   33.8776    8.2847 O.3     1  UNL1       -0.4683
     32 O          17.9267   36.1522    8.6925 O.3     1  UNL1       -0.4684
     33 C          11.8439   35.6386   10.8552 C.3     1  UNL1        0.2525
     34 O          12.4187   36.2667    9.7175 O.3     1  UNL1       -0.4716
@<TRIPOS>BOND
     1     7     8    1
     2     8    13   ar
     3     9    10   ar
     4    10    14    1
     5    11    12   ar
     6     1    12    1
     7     1     2    1
     8     2     3    1
     9     3     4    1
    10     4     6    1
    11     5     6    1
    12     5     1    1
    13    22     6    1
    14    22    23    1
    15    24    25   ar
    16    25    32    1
    17    26    27   ar
    18    26    31    1
    19    28    34    1
    20    28    23   ar
    21    33    34    1
    22    29    31    1
    23    29    30    1
    24    30    32    1
    25    16    21   ar
    26    17    20   ar
    27    18    19   ar
    28    14    16    1
    29     8     9   ar
    30    10    11   ar
    31    12    13   ar
    32    23    24   ar
    33    25    26   ar
    34    27    28   ar
    35    16    20   ar
    36    17    18   ar
    37    19    21   ar
    38    14    15    1
@<TRIPOS>MOLECULE
MolPort-020-292-548 MCULE-9838256581 PubChem-110265016
 34 38 0 0 0
SMALL
GASTEIGER

@<TRIPOS>ATOM
      1 C          11.1870   40.2611    9.3080 C.3     1  UNL1        0.0563
      2 C          10.6574   39.0329    8.5599 C.3     1  UNL1        0.0087
      3 C           9.3911   39.3382    7.7556 C.3     1  UNL1        0.0178
      4 C           8.6222   40.5022    8.3795 C.3     1  UNL1        0.0724
      5 C          10.8533   41.5522    8.5537 C.3     1  UNL1        0.0783
      6 N           9.4026   41.7504    8.3642 N.3     1  UNL1       -0.2685
      7 C          14.9628   38.3123   11.8318 C.3     1  UNL1        0.0521
      8 C          14.4734   39.2109   10.7542 C.ar    1  UNL1        0.0602
      9 C          15.3846   39.9247    9.9740 C.ar    1  UNL1        0.0294
     10 C          14.9158   40.7706    8.9609 C.ar    1  UNL1        0.0528
     11 C          13.5396   40.8768    8.7471 C.ar    1  UNL1        0.0294
     12 C          12.6553   40.1498    9.5485 C.ar    1  UNL1        0.0608
     13 N          13.1390   39.3368   10.5287 N.ar    1  UNL1       -0.2539
     14 N          15.8039   41.5264    8.1252 N.pl3   1  UNL1       -0.2825
     15 H          16.7508   41.2573    8.1386 H       1  UNL1        0.1551
     16 C          15.4684   42.6295    7.2724 C.ar    1  UNL1        0.2207
     17 C          15.9243   44.7882    6.4121 C.ar    1  UNL1        0.1034
     18 C          14.7661   44.7376    5.6391 C.ar    1  UNL1        0.0414
     19 C          13.9728   43.5946    5.7124 C.ar    1  UNL1        0.1034
     20 N          16.2535   43.7398    7.2109 N.ar    1  UNL1       -0.2120
     21 N          14.3352   42.5668    6.5240 N.ar    1  UNL1       -0.2120
     22 C           8.9241   42.5577    9.4775 C.3     1  UNL1        0.1023
     23 C           7.4293   42.5767    9.5047 C.ar    1  UNL1        0.0311
     24 C           6.7526   41.9542   10.5615 C.ar    1  UNL1        0.0401
     25 C           5.3578   41.9736   10.6066 C.ar    1  UNL1        0.1723
     26 C           4.6312   42.5931    9.5827 C.ar    1  UNL1        0.1754
     27 C           5.3005   43.2296    8.5359 C.ar    1  UNL1        0.0766
     28 C           6.7057   43.2290    8.4895 C.ar    1  UNL1        0.1392
     29 C           2.5477   41.6895   10.5253 C.3     1  UNL1        0.2526
     30 C           3.2755   41.6353   11.8703 C.3     1  UNL1        0.2526
     31 O           3.2344   42.5647    9.6273 O.3     1  UNL1       -0.4683
     32 O           4.6680   41.3811   11.6681 O.3     1  UNL1       -0.4684
     33 C           7.2268   43.4952    6.0823 C.3     1  UNL1        0.2525
     34 O           7.3948   43.8586    7.4458 O.3     1  UNL1       -0.4716
@<TRIPOS>BOND
     1     7     8    1
     2     8    13   ar
     3     9    10   ar
     4    10    14    1
     5    11    12   ar
     6     1    12    1
     7     1     2    1
     8     2     3    1
     9     3     4    1
    10     4     6    1
    11     5     6    1
    12     5     1    1
    13    22     6    1
    14    22    23    1
    15    24    25   ar
    16    25    32    1
    17    26    27   ar
    18    26    31    1
    19    28    34    1
    20    28    23   ar
    21    33    34    1
    22    29    31    1
    23    29    30    1
    24    30    32    1
    25    16    21   ar
    26    17    20   ar
    27    18    19   ar
    28    14    16    1
    29     8     9   ar
    30    10    11   ar
    31    12    13   ar
    32    23    24   ar
    33    25    26   ar
    34    27    28   ar
    35    16    20   ar
    36    17    18   ar
    37    19    21   ar
    38    14    15    1
@<TRIPOS>MOLECULE
MolPort-020-292-548 MCULE-9838256581 PubChem-110265016
 34 38 0 0 0
SMALL
GASTEIGER

@<TRIPOS>ATOM
      1 C          11.5739   40.7517    6.6281 C.3     1  UNL1        0.0563
      2 C          11.5447   40.0056    5.2898 C.3     1  UNL1        0.0087
      3 C          10.1291   39.8785    4.7210 C.3     1  UNL1        0.0178
      4 C           9.0918   39.9025    5.8430 C.3     1  UNL1        0.0724
      5 C          10.4432   41.7823    6.7094 C.3     1  UNL1        0.0783
      6 N           9.1025   41.1786    6.5772 N.3     1  UNL1       -0.2685
      7 C          14.9995   44.0462    5.2732 C.3     1  UNL1        0.0521
      8 C          14.5461   42.9845    6.2088 C.ar    1  UNL1        0.0602
      9 C          15.3512   42.6155    7.2877 C.ar    1  UNL1        0.0294
     10 C          14.9178   41.6131    8.1648 C.ar    1  UNL1        0.0528
     11 C          13.6793   41.0060    7.9438 C.ar    1  UNL1        0.0294
     12 C          12.8999   41.3980    6.8523 C.ar    1  UNL1        0.0608
     13 N          13.3477   42.3736    6.0136 N.ar    1  UNL1       -0.2539
     14 N          15.6998   41.1942    9.2922 N.pl3   1  UNL1       -0.2825
     15 H          15.8085   41.8519   10.0167 H       1  UNL1        0.1551
     16 C          16.3412   39.9258    9.4833 C.ar    1  UNL1        0.2207
     17 C          16.2743   37.5587    9.4955 C.ar    1  UNL1        0.1034
     18 C          17.6094   37.5113    9.8913 C.ar    1  UNL1        0.0414
     19 C          18.2868   38.7150   10.0750 C.ar    1  UNL1        0.1034
     20 N          15.6666   38.7579    9.2998 N.ar    1  UNL1       -0.2120
     21 N          17.6441   39.8945    9.8699 N.ar    1  UNL1       -0.2120
     22 C           8.6187   40.8933    7.9206 C.3     1  UNL1        0.1023
     23 C           9.7149   40.3192    8.7598 C.ar    1  UNL1        0.0311
     24 C          10.0902   38.9816    8.5798 C.ar    1  UNL1        0.0401
     25 C          11.1195   38.4349    9.3477 C.ar    1  UNL1        0.1723
     26 C          11.7620   39.2145   10.3170 C.ar    1  UNL1        0.1754
     27 C          11.4036   40.5528   10.4890 C.ar    1  UNL1        0.0766
     28 C          10.3786   41.1173    9.7097 C.ar    1  UNL1        0.1392
     29 C          12.9402   37.2162   11.1320 C.3     1  UNL1        0.2526
     30 C          12.7447   36.6298    9.7321 C.3     1  UNL1        0.2526
     31 O          12.7620   38.6344   11.1026 O.3     1  UNL1       -0.4683
     32 O          11.5247   37.1102    9.1618 O.3     1  UNL1       -0.4684
     33 C           9.2225   42.9111   10.9677 C.3     1  UNL1        0.2525
     34 O          10.0024   42.4564    9.8702 O.3     1  UNL1       -0.4716
@<TRIPOS>BOND
     1     7     8    1
     2     8    13   ar
     3     9    10   ar
     4    10    14    1
     5    11    12   ar
     6     1    12    1
     7     1     2    1
     8     2     3    1
     9     3     4    1
    10     4     6    1
    11     5     6    1
    12     5     1    1
    13    22     6    1
    14    22    23    1
    15    24    25   ar
    16    25    32    1
    17    26    27   ar
    18    26    31    1
    19    28    34    1
    20    28    23   ar
    21    33    34    1
    22    29    31    1
    23    29    30    1
    24    30    32    1
    25    16    21   ar
    26    17    20   ar
    27    18    19   ar
    28    14    16    1
    29     8     9   ar
    30    10    11   ar
    31    12    13   ar
    32    23    24   ar
    33    25    26   ar
    34    27    28   ar
    35    16    20   ar
    36    17    18   ar
    37    19    21   ar
    38    14    15    1
