@<TRIPOS>MOLECULE
Molport-046-951-095 MCULE-1290107612 MCULE-6166266746 PubChem-110089565
 23 25 0 0 0
SMALL
GASTEIGER

@<TRIPOS>ATOM
      1 C          10.4325   41.3082    6.0386 C.ar    1  UNL1        0.1339
      2 C          10.5564   39.9138    6.1061 C.ar    1  UNL1        0.0345
      3 C           9.4528   39.1396    6.4642 C.ar    1  UNL1        0.0041
      4 C           8.2364   39.7573    6.7518 C.ar    1  UNL1        0.0149
      5 C           8.1412   41.1534    6.6762 C.ar    1  UNL1        0.0614
      6 N           9.2333   41.8853    6.3245 N.ar    1  UNL1       -0.2348
      7 C           6.8564   41.8583    6.9765 C.3     1  UNL1        0.0561
      8 C           7.0817   43.3605    7.1489 C.3     1  UNL1        0.0087
      9 C           5.7774   44.0483    7.5383 C.3     1  UNL1        0.0175
     10 C           5.1844   43.3624    8.7667 C.3     1  UNL1        0.0686
     11 C           6.1882   41.2786    8.2253 C.3     1  UNL1        0.0745
     12 N           4.9164   41.9554    8.4735 N.3     1  UNL1       -0.2971
     13 H           4.3225   41.8839    7.6473 H       1  UNL1        0.1233
     14 N          11.5359   42.1505    5.6758 N.pl3   1  UNL1       -0.2680
     15 H          11.3963   42.7408    4.9003 H       1  UNL1        0.1565
     16 C          15.9536   44.2307    6.0771 C.3     1  UNL1        0.0522
     17 C          14.9594   43.2214    6.5253 C.ar    1  UNL1        0.0634
     18 C          15.2714   42.3499    7.5668 C.ar    1  UNL1        0.0296
     19 C          14.3120   41.4178    7.9576 C.ar    1  UNL1        0.0634
     20 C          12.8184   42.2321    6.3120 C.ar    1  UNL1        0.2211
     21 C          14.6044   40.4701    9.0641 C.3     1  UNL1        0.0522
     22 N          13.1094   41.3756    7.3269 N.ar    1  UNL1       -0.2179
     23 N          13.7460   43.1480    5.9194 N.ar    1  UNL1       -0.2179
@<TRIPOS>BOND
     1    16    17    1
     2    17    23   ar
     3    18    19   ar
     4    20    22   ar
     5    20    14    1
     6     1     6   ar
     7     2     3   ar
     8     4     5   ar
     9     7     5    1
    10     7     8    1
    11     8     9    1
    12     9    10    1
    13    10    12    1
    14    11    12    1
    15    11     7    1
    16    21    19    1
    17    14     1    1
    18    17    18   ar
    19    19    22   ar
    20    20    23   ar
    21     1     2   ar
    22     3     4   ar
    23     5     6   ar
    24    14    15    1
    25    12    13    1
@<TRIPOS>MOLECULE
Molport-046-951-095 MCULE-1290107612 MCULE-6166266746 PubChem-110089565
 23 25 0 0 0
SMALL
GASTEIGER

@<TRIPOS>ATOM
      1 C          11.0511   41.6058    6.2839 C.ar    1  UNL1        0.1339
      2 C          10.4986   40.5451    5.5531 C.ar    1  UNL1        0.0345
      3 C           9.3265   39.9356    6.0006 C.ar    1  UNL1        0.0041
      4 C           8.7139   40.3851    7.1696 C.ar    1  UNL1        0.0149
      5 C           9.2884   41.4476    7.8802 C.ar    1  UNL1        0.0614
      6 N          10.4325   42.0245    7.4218 N.ar    1  UNL1       -0.2348
      7 C           8.6657   41.9622    9.1393 C.3     1  UNL1        0.0561
      8 C           9.4399   41.4868   10.3688 C.3     1  UNL1        0.0087
      9 C           8.7418   41.9495   11.6433 C.3     1  UNL1        0.0175
     10 C           7.2813   41.5051   11.6166 C.3     1  UNL1        0.0686
     11 C           7.1991   41.5371    9.2428 C.3     1  UNL1        0.0745
     12 N           6.6026   42.0860   10.4593 N.3     1  UNL1       -0.2971
     13 H           6.7141   43.0999   10.4691 H       1  UNL1        0.1233
     14 N          12.2545   42.2670    5.8679 N.pl3   1  UNL1       -0.2680
     15 H          12.2134   42.7457    5.0086 H       1  UNL1        0.1565
     16 C          16.6230   44.3577    6.6100 C.3     1  UNL1        0.0522
     17 C          15.6269   43.3043    6.9359 C.ar    1  UNL1        0.0634
     18 C          15.9110   42.3550    7.9155 C.ar    1  UNL1        0.0296
     19 C          14.9508   41.3836    8.1917 C.ar    1  UNL1        0.0634
     20 C          13.5102   42.3114    6.5590 C.ar    1  UNL1        0.2211
     21 C          15.2139   40.3528    9.2292 C.3     1  UNL1        0.0522
     22 N          13.7742   41.3789    7.5125 N.ar    1  UNL1       -0.2179
     23 N          14.4390   43.2665    6.2784 N.ar    1  UNL1       -0.2179
@<TRIPOS>BOND
     1    16    17    1
     2    17    23   ar
     3    18    19   ar
     4    20    22   ar
     5    20    14    1
     6     1     6   ar
     7     2     3   ar
     8     4     5   ar
     9     7     5    1
    10     7     8    1
    11     8     9    1
    12     9    10    1
    13    10    12    1
    14    11    12    1
    15    11     7    1
    16    21    19    1
    17    14     1    1
    18    17    18   ar
    19    19    22   ar
    20    20    23   ar
    21     1     2   ar
    22     3     4   ar
    23     5     6   ar
    24    14    15    1
    25    12    13    1
@<TRIPOS>MOLECULE
Molport-046-951-095 MCULE-1290107612 MCULE-6166266746 PubChem-110089565
 23 25 0 0 0
SMALL
GASTEIGER

@<TRIPOS>ATOM
      1 C          10.2482   41.1692    5.7044 C.ar    1  UNL1        0.1339
      2 C          10.2178   39.7893    5.4610 C.ar    1  UNL1        0.0345
      3 C           9.0278   39.0835    5.6380 C.ar    1  UNL1        0.0041
      4 C           7.8791   39.7546    6.0550 C.ar    1  UNL1        0.0149
      5 C           7.9384   41.1347    6.2910 C.ar    1  UNL1        0.0614
      6 N           9.1122   41.7994    6.1108 N.ar    1  UNL1       -0.2348
      7 C           6.7309   41.8952    6.7397 C.3     1  UNL1        0.0561
      8 C           7.0216   43.3943    6.8116 C.3     1  UNL1        0.0087
      9 C           5.8071   44.1419    7.3519 C.3     1  UNL1        0.0175
     10 C           5.3775   43.5263    8.6815 C.3     1  UNL1        0.0686
     11 C           6.2328   41.3891    8.0955 C.3     1  UNL1        0.0745
     12 N           5.0299   42.1189    8.4920 N.3     1  UNL1       -0.2971
     13 H           4.3215   42.0353    7.7629 H       1  UNL1        0.1233
     14 N          11.4455   41.9420    5.5379 N.pl3   1  UNL1       -0.2680
     15 H          11.4603   42.5626    4.7737 H       1  UNL1        0.1565
     16 C          13.9267   40.1285    9.3536 C.3     1  UNL1        0.0522
     17 C          13.8422   41.0543    8.1944 C.ar    1  UNL1        0.0634
     18 C          14.9090   41.9005    7.8985 C.ar    1  UNL1        0.0296
     19 C          14.7907   42.7538    6.8032 C.ar    1  UNL1        0.0634
     20 C          12.6231   41.9152    6.3557 C.ar    1  UNL1        0.2211
     21 C          15.9053   43.6721    6.4531 C.3     1  UNL1        0.0522
     22 N          13.6565   42.7461    6.0554 N.ar    1  UNL1       -0.2179
     23 N          12.7245   41.0761    7.4229 N.ar    1  UNL1       -0.2179
@<TRIPOS>BOND
     1    16    17    1
     2    17    23   ar
     3    18    19   ar
     4    20    22   ar
     5    20    14    1
     6     1     6   ar
     7     2     3   ar
     8     4     5   ar
     9     7     5    1
    10     7     8    1
    11     8     9    1
    12     9    10    1
    13    10    12    1
    14    11    12    1
    15    11     7    1
    16    21    19    1
    17    14     1    1
    18    17    18   ar
    19    19    22   ar
    20    20    23   ar
    21     1     2   ar
    22     3     4   ar
    23     5     6   ar
    24    14    15    1
    25    12    13    1
@<TRIPOS>MOLECULE
Molport-046-951-095 MCULE-1290107612 MCULE-6166266746 PubChem-110089565
 23 25 0 0 0
SMALL
GASTEIGER

@<TRIPOS>ATOM
      1 C          10.5220   41.6238    6.2357 C.ar    1  UNL1        0.1339
      2 C           9.9320   40.5698    5.5249 C.ar    1  UNL1        0.0345
      3 C           8.7900   39.9498    6.0318 C.ar    1  UNL1        0.0041
      4 C           8.2444   40.3824    7.2399 C.ar    1  UNL1        0.0149
      5 C           8.8553   41.4386    7.9292 C.ar    1  UNL1        0.0614
      6 N           9.9688   42.0260    7.4125 N.ar    1  UNL1       -0.2348
      7 C           8.3046   41.9351    9.2284 C.3     1  UNL1        0.0561
      8 C           9.1542   41.4536   10.4047 C.3     1  UNL1        0.0087
      9 C           8.5296   41.8975   11.7232 C.3     1  UNL1        0.0175
     10 C           7.0735   41.4412   11.7786 C.3     1  UNL1        0.0686
     11 C           6.8501   41.4969    9.4143 C.3     1  UNL1        0.0745
     12 N           6.3228   42.0284   10.6699 N.3     1  UNL1       -0.2971
     13 H           6.4269   43.0429   10.6840 H       1  UNL1        0.1233
     14 N          11.6970   42.2953    5.7591 N.pl3   1  UNL1       -0.2680
     15 H          11.6073   42.7757    4.9044 H       1  UNL1        0.1565
     16 C          14.9344   40.5133    8.9760 C.3     1  UNL1        0.0522
     17 C          14.5684   41.5047    7.9313 C.ar    1  UNL1        0.0634
     18 C          15.4793   42.4897    7.5550 C.ar    1  UNL1        0.0296
     19 C          15.0981   43.4006    6.5718 C.ar    1  UNL1        0.0634
     20 C          12.9868   42.3477    6.3835 C.ar    1  UNL1        0.2211
     21 C          16.0397   44.4667    6.1415 C.3     1  UNL1        0.0522
     22 N          13.8658   43.3141    6.0066 N.ar    1  UNL1       -0.2179
     23 N          13.3454   41.4509    7.3429 N.ar    1  UNL1       -0.2179
@<TRIPOS>BOND
     1    16    17    1
     2    17    23   ar
     3    18    19   ar
     4    20    22   ar
     5    20    14    1
     6     1     6   ar
     7     2     3   ar
     8     4     5   ar
     9     7     5    1
    10     7     8    1
    11     8     9    1
    12     9    10    1
    13    10    12    1
    14    11    12    1
    15    11     7    1
    16    21    19    1
    17    14     1    1
    18    17    18   ar
    19    19    22   ar
    20    20    23   ar
    21     1     2   ar
    22     3     4   ar
    23     5     6   ar
    24    14    15    1
    25    12    13    1
@<TRIPOS>MOLECULE
Molport-046-951-095 MCULE-1290107612 MCULE-6166266746 PubChem-110089565
 23 25 0 0 0
SMALL
GASTEIGER

@<TRIPOS>ATOM
      1 C          17.1250   42.0450    8.4022 C.ar    1  UNL1        0.1339
      2 C          17.6683   43.2111    7.8461 C.ar    1  UNL1        0.0345
      3 C          16.8488   44.0769    7.1220 C.ar    1  UNL1        0.0041
      4 C          15.4973   43.7766    6.9569 C.ar    1  UNL1        0.0149
      5 C          14.9810   42.6037    7.5240 C.ar    1  UNL1        0.0614
      6 N          15.8024   41.7761    8.2256 N.ar    1  UNL1       -0.2348
      7 C          13.5375   42.2417    7.3720 C.3     1  UNL1        0.0561
      8 C          13.3022   40.7693    7.7095 C.3     1  UNL1        0.0087
      9 C          11.8430   40.3990    7.4664 C.3     1  UNL1        0.0175
     10 C          11.4485   40.7821    6.0420 C.3     1  UNL1        0.0686
     11 C          13.0392   42.5444    5.9569 C.3     1  UNL1        0.0745
     12 N          11.6178   42.2210    5.8460 N.3     1  UNL1       -0.2971
     13 H          11.0936   42.7287    6.5586 H       1  UNL1        0.1233
     14 N          17.9236   41.1211    9.1553 N.pl3   1  UNL1       -0.2680
     15 H          18.8880   41.3145    9.1992 H       1  UNL1        0.1565
     16 C          18.7428   36.5597   10.7449 C.3     1  UNL1        0.0522
     17 C          17.8521   37.7436   10.6305 C.ar    1  UNL1        0.0634
     18 C          16.5809   37.7176   11.2004 C.ar    1  UNL1        0.0296
     19 C          15.7761   38.8478   11.0711 C.ar    1  UNL1        0.0634
     20 C          17.4798   39.9488    9.8516 C.ar    1  UNL1        0.2211
     21 C          14.4137   38.8615   11.6642 C.3     1  UNL1        0.0522
     22 N          16.2370   39.9371   10.4029 N.ar    1  UNL1       -0.2179
     23 N          18.2772   38.8516    9.9699 N.ar    1  UNL1       -0.2179
@<TRIPOS>BOND
     1    16    17    1
     2    17    23   ar
     3    18    19   ar
     4    20    22   ar
     5    20    14    1
     6     1     6   ar
     7     2     3   ar
     8     4     5   ar
     9     7     5    1
    10     7     8    1
    11     8     9    1
    12     9    10    1
    13    10    12    1
    14    11    12    1
    15    11     7    1
    16    21    19    1
    17    14     1    1
    18    17    18   ar
    19    19    22   ar
    20    20    23   ar
    21     1     2   ar
    22     3     4   ar
    23     5     6   ar
    24    14    15    1
    25    12    13    1
@<TRIPOS>MOLECULE
Molport-046-951-095 MCULE-1290107612 MCULE-6166266746 PubChem-110089565
 23 25 0 0 0
SMALL
GASTEIGER

@<TRIPOS>ATOM
      1 C          11.5209   41.2784    8.4326 C.ar    1  UNL1        0.1339
      2 C          11.6958   40.9279    9.7783 C.ar    1  UNL1        0.0345
      3 C          10.6370   41.0786   10.6737 C.ar    1  UNL1        0.0041
      4 C           9.4144   41.5760   10.2245 C.ar    1  UNL1        0.0149
      5 C           9.2678   41.9184    8.8735 C.ar    1  UNL1        0.0614
      6 N          10.3168   41.7616    8.0209 N.ar    1  UNL1       -0.2348
      7 C           7.9745   42.4558    8.3479 C.3     1  UNL1        0.0561
      8 C           7.7399   43.8883    8.8274 C.3     1  UNL1        0.0087
      9 C           6.3793   44.3874    8.3527 C.3     1  UNL1        0.0175
     10 C           5.2949   43.4016    8.7815 C.3     1  UNL1        0.0686
     11 C           6.7999   41.5639    8.7568 C.3     1  UNL1        0.0745
     12 N           5.5547   42.0868    8.1973 N.3     1  UNL1       -0.2971
     13 H           5.6425   42.1723    7.1847 H       1  UNL1        0.1233
     14 N          12.5769   41.1431    7.4708 N.pl3   1  UNL1       -0.2680
     15 H          12.4420   40.4664    6.7686 H       1  UNL1        0.1565
     16 C          17.2412   41.7357    8.8483 C.3     1  UNL1        0.0522
     17 C          16.0620   42.1871    8.0649 C.ar    1  UNL1        0.0634
     18 C          16.1476   43.3294    7.2716 C.ar    1  UNL1        0.0296
     19 C          15.0197   43.7198    6.5524 C.ar    1  UNL1        0.0634
     20 C          13.8060   41.8796    7.4139 C.ar    1  UNL1        0.2211
     21 C          15.0686   44.9320    5.6941 C.3     1  UNL1        0.0522
     22 N          13.8754   42.9922    6.6357 N.ar    1  UNL1       -0.2179
     23 N          14.9000   41.4862    8.1223 N.ar    1  UNL1       -0.2179
@<TRIPOS>BOND
     1    16    17    1
     2    17    23   ar
     3    18    19   ar
     4    20    22   ar
     5    20    14    1
     6     1     6   ar
     7     2     3   ar
     8     4     5   ar
     9     7     5    1
    10     7     8    1
    11     8     9    1
    12     9    10    1
    13    10    12    1
    14    11    12    1
    15    11     7    1
    16    21    19    1
    17    14     1    1
    18    17    18   ar
    19    19    22   ar
    20    20    23   ar
    21     1     2   ar
    22     3     4   ar
    23     5     6   ar
    24    14    15    1
    25    12    13    1
@<TRIPOS>MOLECULE
Molport-046-951-095 MCULE-1290107612 MCULE-6166266746 PubChem-110089565
 23 25 0 0 0
SMALL
GASTEIGER

@<TRIPOS>ATOM
      1 C          15.5138   42.0106    7.8433 C.ar    1  UNL1        0.1339
      2 C          15.6951   43.1980    7.1212 C.ar    1  UNL1        0.0345
      3 C          14.6693   43.6717    6.3034 C.ar    1  UNL1        0.0041
      4 C          13.4729   42.9618    6.2102 C.ar    1  UNL1        0.0149
      5 C          13.3192   41.7775    6.9435 C.ar    1  UNL1        0.0614
      6 N          14.3358   41.3374    7.7339 N.ar    1  UNL1       -0.2348
      7 C          12.0532   40.9836    6.8737 C.3     1  UNL1        0.0561
      8 C          10.8895   41.7493    7.5034 C.3     1  UNL1        0.0087
      9 C           9.6293   40.8905    7.4997 C.3     1  UNL1        0.0175
     10 C           9.9235   39.5476    8.1642 C.3     1  UNL1        0.0686
     11 C          12.2179   39.6222    7.5533 C.3     1  UNL1        0.0745
     12 N          10.9820   38.8503    7.4357 N.3     1  UNL1       -0.2971
     13 H          10.7232   38.7642    6.4529 H       1  UNL1        0.1233
     14 N          16.5364   41.4798    8.6984 N.pl3   1  UNL1       -0.2680
     15 H          17.4015   41.9496    8.6858 H       1  UNL1        0.1565
     16 C          18.5912   37.5581   10.7967 C.3     1  UNL1        0.0522
     17 C          17.4151   38.4438   10.5956 C.ar    1  UNL1        0.0634
     18 C          16.2173   38.1726   11.2538 C.ar    1  UNL1        0.0296
     19 C          15.1376   39.0269   11.0387 C.ar    1  UNL1        0.0634
     20 C          16.4442   40.3442    9.5692 C.ar    1  UNL1        0.2211
     21 C          13.8423   38.7735   11.7214 C.3     1  UNL1        0.0522
     22 N          15.2693   40.0915   10.2051 N.ar    1  UNL1       -0.2179
     23 N          17.5075   39.5181    9.7696 N.ar    1  UNL1       -0.2179
@<TRIPOS>BOND
     1    16    17    1
     2    17    23   ar
     3    18    19   ar
     4    20    22   ar
     5    20    14    1
     6     1     6   ar
     7     2     3   ar
     8     4     5   ar
     9     7     5    1
    10     7     8    1
    11     8     9    1
    12     9    10    1
    13    10    12    1
    14    11    12    1
    15    11     7    1
    16    21    19    1
    17    14     1    1
    18    17    18   ar
    19    19    22   ar
    20    20    23   ar
    21     1     2   ar
    22     3     4   ar
    23     5     6   ar
    24    14    15    1
    25    12    13    1
@<TRIPOS>MOLECULE
Molport-046-951-095 MCULE-1290107612 MCULE-6166266746 PubChem-110089565
 23 25 0 0 0
SMALL
GASTEIGER

@<TRIPOS>ATOM
      1 C          11.5933   40.8760    9.0419 C.ar    1  UNL1        0.1339
      2 C          11.6239   40.6150   10.4185 C.ar    1  UNL1        0.0345
      3 C          10.5166   40.9312   11.2056 C.ar    1  UNL1        0.0041
      4 C           9.3891   41.5037   10.6182 C.ar    1  UNL1        0.0149
      5 C           9.3862   41.7536    9.2392 C.ar    1  UNL1        0.0614
      6 N          10.4798   41.4356    8.4943 N.ar    1  UNL1       -0.2348
      7 C           8.1987   42.3666    8.5670 C.3     1  UNL1        0.0561
      8 C           7.9433   43.7815    9.0864 C.3     1  UNL1        0.0087
      9 C           6.6807   44.3562    8.4529 C.3     1  UNL1        0.0175
     10 C           5.5158   43.3933    8.6700 C.3     1  UNL1        0.0686
     11 C           6.9503   41.5019    8.7568 C.3     1  UNL1        0.0745
     12 N           5.8147   42.1001    8.0570 N.3     1  UNL1       -0.2971
     13 H           6.0488   42.2325    7.0730 H       1  UNL1        0.1233
     14 N          12.7047   40.5703    8.1876 N.pl3   1  UNL1       -0.2680
     15 H          12.7215   39.6643    7.8027 H       1  UNL1        0.1565
     16 C          14.4925   44.2736    5.5242 C.3     1  UNL1        0.0522
     17 C          14.6808   43.2188    6.5537 C.ar    1  UNL1        0.0634
     18 C          15.9184   43.0634    7.1748 C.ar    1  UNL1        0.0296
     19 C          16.0543   42.0627    8.1348 C.ar    1  UNL1        0.0634
     20 C          13.7937   41.4317    7.8294 C.ar    1  UNL1        0.2211
     21 C          17.3572   41.8636    8.8211 C.3     1  UNL1        0.0522
     22 N          14.9958   41.2690    8.4435 N.ar    1  UNL1       -0.2179
     23 N          13.6461   42.4053    6.8893 N.ar    1  UNL1       -0.2179
@<TRIPOS>BOND
     1    16    17    1
     2    17    23   ar
     3    18    19   ar
     4    20    22   ar
     5    20    14    1
     6     1     6   ar
     7     2     3   ar
     8     4     5   ar
     9     7     5    1
    10     7     8    1
    11     8     9    1
    12     9    10    1
    13    10    12    1
    14    11    12    1
    15    11     7    1
    16    21    19    1
    17    14     1    1
    18    17    18   ar
    19    19    22   ar
    20    20    23   ar
    21     1     2   ar
    22     3     4   ar
    23     5     6   ar
    24    14    15    1
    25    12    13    1
@<TRIPOS>MOLECULE
Molport-046-951-095 MCULE-1290107612 MCULE-6166266746 PubChem-110089565
 23 25 0 0 0
SMALL
GASTEIGER

@<TRIPOS>ATOM
      1 C          14.8006   41.7979    7.6796 C.ar    1  UNL1        0.1339
      2 C          14.7018   42.8864    6.8022 C.ar    1  UNL1        0.0345
      3 C          13.5309   43.0769    6.0684 C.ar    1  UNL1        0.0041
      4 C          12.4692   42.1848    6.2127 C.ar    1  UNL1        0.0149
      5 C          12.5957   41.1053    7.0973 C.ar    1  UNL1        0.0614
      6 N          13.7490   40.9423    7.8011 N.ar    1  UNL1       -0.2348
      7 C          11.4825   40.1236    7.2835 C.3     1  UNL1        0.0561
      8 C          10.7404   39.8792    5.9695 C.3     1  UNL1        0.0087
      9 C           9.5581   38.9433    6.1974 C.3     1  UNL1        0.0175
     10 C           8.6778   39.4945    7.3166 C.3     1  UNL1        0.0686
     11 C          10.5044   40.5969    8.3613 C.3     1  UNL1        0.0745
     12 N           9.4501   39.6025    8.5533 N.3     1  UNL1       -0.2971
     13 H           9.8670   38.6991    8.7778 H       1  UNL1        0.1233
     14 N          15.9818   41.5562    8.4573 N.pl3   1  UNL1       -0.2680
     15 H          16.7277   42.1845    8.3227 H       1  UNL1        0.1565
     16 C          14.2705   38.5059   11.8884 C.3     1  UNL1        0.0522
     17 C          15.3981   39.0211   11.0692 C.ar    1  UNL1        0.0634
     18 C          16.6745   38.4837   11.2231 C.ar    1  UNL1        0.0296
     19 C          17.7051   38.9942   10.4364 C.ar    1  UNL1        0.0634
     20 C          16.2016   40.5055    9.4081 C.ar    1  UNL1        0.2211
     21 C          19.0811   38.4489   10.5692 C.3     1  UNL1        0.0522
     22 N          17.4520   39.9902    9.5479 N.ar    1  UNL1       -0.2179
     23 N          15.1848   40.0166   10.1701 N.ar    1  UNL1       -0.2179
@<TRIPOS>BOND
     1    16    17    1
     2    17    23   ar
     3    18    19   ar
     4    20    22   ar
     5    20    14    1
     6     1     6   ar
     7     2     3   ar
     8     4     5   ar
     9     7     5    1
    10     7     8    1
    11     8     9    1
    12     9    10    1
    13    10    12    1
    14    11    12    1
    15    11     7    1
    16    21    19    1
    17    14     1    1
    18    17    18   ar
    19    19    22   ar
    20    20    23   ar
    21     1     2   ar
    22     3     4   ar
    23     5     6   ar
    24    14    15    1
    25    12    13    1
@<TRIPOS>MOLECULE
Molport-046-951-095 MCULE-1290107612 MCULE-6166266746 PubChem-110089565
 23 25 0 0 0
SMALL
GASTEIGER

@<TRIPOS>ATOM
      1 C           9.3656   42.5942   10.2272 C.ar    1  UNL1        0.1339
      2 C           9.7921   43.9226   10.0935 C.ar    1  UNL1        0.0345
      3 C           8.9402   44.8663    9.5198 C.ar    1  UNL1        0.0041
      4 C           7.6727   44.4822    9.0841 C.ar    1  UNL1        0.0149
      5 C           7.2725   43.1472    9.2303 C.ar    1  UNL1        0.0614
      6 N           8.1232   42.2464    9.7934 N.ar    1  UNL1       -0.2348
      7 C           5.9221   42.6906    8.7769 C.3     1  UNL1        0.0561
      8 C           4.8128   43.4528    9.5019 C.3     1  UNL1        0.0087
      9 C           3.4466   42.9147    9.0899 C.3     1  UNL1        0.0175
     10 C           3.4064   41.4035    9.3039 C.3     1  UNL1        0.0686
     11 C           5.7503   41.1843    8.9860 C.3     1  UNL1        0.0745
     12 N           4.4404   40.7564    8.4979 N.3     1  UNL1       -0.2971
     13 H           4.3331   41.0269    7.5203 H       1  UNL1        0.1233
     14 N          10.2020   41.5846   10.8098 N.pl3   1  UNL1       -0.2680
     15 H           9.8524   41.1421   11.6168 H       1  UNL1        0.1565
     16 C          13.7641   41.6486    7.4464 C.3     1  UNL1        0.0522
     17 C          13.2238   41.1599    8.7416 C.ar    1  UNL1        0.0634
     18 C          13.9669   40.2720    9.5167 C.ar    1  UNL1        0.0296
     19 C          13.4253   39.8371   10.7247 C.ar    1  UNL1        0.0634
     20 C          11.4883   41.1454   10.3528 C.ar    1  UNL1        0.2211
     21 C          14.1851   38.8901   11.5815 C.3     1  UNL1        0.0522
     22 N          12.2027   40.2790   11.1192 N.ar    1  UNL1       -0.2179
     23 N          12.0048   41.5788    9.1700 N.ar    1  UNL1       -0.2179
@<TRIPOS>BOND
     1    16    17    1
     2    17    23   ar
     3    18    19   ar
     4    20    22   ar
     5    20    14    1
     6     1     6   ar
     7     2     3   ar
     8     4     5   ar
     9     7     5    1
    10     7     8    1
    11     8     9    1
    12     9    10    1
    13    10    12    1
    14    11    12    1
    15    11     7    1
    16    21    19    1
    17    14     1    1
    18    17    18   ar
    19    19    22   ar
    20    20    23   ar
    21     1     2   ar
    22     3     4   ar
    23     5     6   ar
    24    14    15    1
    25    12    13    1
