@<TRIPOS>MOLECULE
MolPort-020-278-648 MCULE-3254278991 PubChem-110255520
 28 30 0 0 0
SMALL
GASTEIGER

@<TRIPOS>ATOM
      1 C          12.3437   41.6704    7.7942 C.ar    1  UNL1        0.1357
      2 C          12.3373   39.7231    9.1461 C.ar    1  UNL1        0.1411
      3 C          11.0830   41.6030    9.8386 C.ar    1  UNL1        0.0635
      4 C          11.4925   42.3036    8.7063 C.ar    1  UNL1        0.0492
      5 C          10.1796   42.2489   10.8258 C.3     1  UNL1        0.0522
      6 N          12.7457   40.3947    8.0373 N.ar    1  UNL1       -0.2159
      7 N          11.5101   40.3302   10.0400 N.ar    1  UNL1       -0.2349
      8 C          12.8077   38.3253    9.3731 C.3     1  UNL1        0.0764
      9 C          11.7125   37.4847   10.0117 C.3     1  UNL1        0.0105
     10 C          12.2250   36.0694   10.2146 C.3     1  UNL1        0.0197
     11 C          13.4828   36.0904   11.0856 C.3     1  UNL1        0.0969
     12 C          14.0616   38.3157   10.2519 C.3     1  UNL1        0.1044
     13 N          14.5407   36.9562   10.5417 N.3     1  UNL1       -0.1449
     14 S          15.2921   36.2411    9.1401 S.O2    1  UNL1        0.1021
     15 O          15.2631   34.7425    9.2752 O.2     1  UNL1       -0.1408
     16 O          14.5528   36.6334    7.8901 O.2     1  UNL1       -0.1408
     17 C          17.3446   37.2307   10.3488 C.3     1  UNL1        0.1161
     18 C          17.7632   35.6456    8.6898 C.3     1  UNL1        0.1161
     19 N          16.9347   36.7907    9.0264 N.3     1  UNL1       -0.1424
     20 N          12.8078   42.3279    6.6066 N.pl3   1  UNL1       -0.2835
     21 H          12.2932   42.1556    5.7851 H       1  UNL1        0.1550
     22 C          15.2855   41.6642    7.9500 C.3     1  UNL1        0.0340
     23 C          15.1427   42.8960    7.1232 C.ar    1  UNL1        0.0099
     24 C          13.9358   43.2085    6.4756 C.ar    1  UNL1        0.1291
     25 C          14.9065   45.1958    5.5908 C.ar    1  UNL1        0.1003
     26 C          16.1191   44.9151    6.2206 C.ar    1  UNL1        0.0204
     27 C          16.2331   43.7576    6.9901 C.ar    1  UNL1        0.0001
     28 N          13.8536   44.3467    5.7301 N.ar    1  UNL1       -0.2294
@<TRIPOS>BOND
     1    22    23    1
     2    24    28   ar
     3    24    20    1
     4    25    26   ar
     5    27    23   ar
     6     2     6   ar
     7     3     7   ar
     8     4     1   ar
     9     5     3    1
    10     8     2    1
    11     8     9    1
    12     9    10    1
    13    10    11    1
    14    11    13    1
    15    12    13    1
    16    12     8    1
    17    17    19    1
    18    18    19    1
    19    20     1    1
    20    14    13    1
    21    14    19    1
    22    23    24   ar
    23    25    28   ar
    24    26    27   ar
    25     1     6   ar
    26     2     7   ar
    27     3     4   ar
    28    14    15    2
    29    14    16    2
    30    20    21    1
@<TRIPOS>MOLECULE
MolPort-020-278-648 MCULE-3254278991 PubChem-110255520
 28 30 0 0 0
SMALL
GASTEIGER

@<TRIPOS>ATOM
      1 C          12.7347   41.8163    6.8706 C.ar    1  UNL1        0.1357
      2 C          12.3128   39.6461    7.7260 C.ar    1  UNL1        0.1411
      3 C          10.5984   40.7657    6.5452 C.ar    1  UNL1        0.0635
      4 C          11.4361   41.8618    6.3519 C.ar    1  UNL1        0.0492
      5 C           9.2137   40.7846    6.0066 C.3     1  UNL1        0.0522
      6 N          13.1410   40.7085    7.5458 N.ar    1  UNL1       -0.2159
      7 N          11.0474   39.6806    7.2263 N.ar    1  UNL1       -0.2349
      8 C          12.8013   38.4530    8.4774 C.3     1  UNL1        0.0764
      9 C          11.7130   37.9071    9.3893 C.3     1  UNL1        0.0105
     10 C          12.2441   36.6894   10.1254 C.3     1  UNL1        0.0197
     11 C          13.4941   37.0666   10.9230 C.3     1  UNL1        0.0969
     12 C          14.0478   38.8050    9.2941 C.3     1  UNL1        0.1044
     13 N          14.5440   37.6718   10.0887 N.3     1  UNL1       -0.1449
     14 S          15.3173   36.4824    9.0748 S.O2    1  UNL1        0.1021
     15 O          15.1075   35.1158    9.6692 O.2     1  UNL1       -0.1408
     16 O          14.7283   36.5090    7.6908 O.2     1  UNL1       -0.1408
     17 C          17.4464   37.2915   10.2853 C.3     1  UNL1        0.1161
     18 C          17.7093   35.5765    8.7263 C.3     1  UNL1        0.1161
     19 N          17.0156   36.8282    8.9776 N.3     1  UNL1       -0.1424
     20 N          13.6540   42.9063    6.7122 N.pl3   1  UNL1       -0.2835
     21 H          13.3101   43.7001    6.2423 H       1  UNL1        0.1550
     22 C          15.3183   45.1118    5.8462 C.3     1  UNL1        0.0340
     23 C          15.8342   44.0408    6.7451 C.ar    1  UNL1        0.0099
     24 C          15.0179   42.9750    7.1592 C.ar    1  UNL1        0.1291
     25 C          16.8218   42.0616    8.4187 C.ar    1  UNL1        0.1003
     26 C          17.6591   43.1061    8.0263 C.ar    1  UNL1        0.0204
     27 C          17.1580   44.0990    7.1847 C.ar    1  UNL1        0.0001
     28 N          15.5348   42.0189    7.9821 N.ar    1  UNL1       -0.2294
@<TRIPOS>BOND
     1    22    23    1
     2    24    28   ar
     3    24    20    1
     4    25    26   ar
     5    27    23   ar
     6     2     6   ar
     7     3     7   ar
     8     4     1   ar
     9     5     3    1
    10     8     2    1
    11     8     9    1
    12     9    10    1
    13    10    11    1
    14    11    13    1
    15    12    13    1
    16    12     8    1
    17    17    19    1
    18    18    19    1
    19    20     1    1
    20    14    13    1
    21    14    19    1
    22    23    24   ar
    23    25    28   ar
    24    26    27   ar
    25     1     6   ar
    26     2     7   ar
    27     3     4   ar
    28    14    15    2
    29    14    16    2
    30    20    21    1
@<TRIPOS>MOLECULE
MolPort-020-278-648 MCULE-3254278991 PubChem-110255520
 28 30 0 0 0
SMALL
GASTEIGER

@<TRIPOS>ATOM
      1 C          13.4980   41.1843    8.6870 C.ar    1  UNL1        0.1357
      2 C          11.5327   41.2464   10.0111 C.ar    1  UNL1        0.1411
      3 C          13.3454   39.9018   10.7132 C.ar    1  UNL1        0.0635
      4 C          14.0801   40.2949    9.5967 C.ar    1  UNL1        0.0492
      5 C          13.9363   38.9579   11.6969 C.3     1  UNL1        0.0522
      6 N          12.2372   41.6381    8.9169 N.ar    1  UNL1       -0.2159
      7 N          12.0893   40.3809   10.9017 N.ar    1  UNL1       -0.2349
      8 C          10.1501   41.7677   10.2199 C.3     1  UNL1        0.0764
      9 C           9.7294   41.6138   11.6736 C.3     1  UNL1        0.0105
     10 C           8.3252   42.1656   11.8471 C.3     1  UNL1        0.0197
     11 C           7.3587   41.4347   10.9128 C.3     1  UNL1        0.0969
     12 C           9.1587   41.0452    9.3035 C.3     1  UNL1        0.1044
     13 N           7.7725   41.4932    9.5022 N.3     1  UNL1       -0.1449
     14 S           7.5215   43.0823    8.8295 S.O2    1  UNL1        0.1021
     15 O           8.3741   44.0738    9.5743 O.2     1  UNL1       -0.1408
     16 O           7.9050   43.1036    7.3750 O.2     1  UNL1       -0.1408
     17 C           5.5581   44.5241    7.9815 C.3     1  UNL1        0.1161
     18 C           5.0554   42.3435    8.6395 C.3     1  UNL1        0.1161
     19 N           5.8469   43.5125    8.9833 N.3     1  UNL1       -0.1424
     20 N          14.1922   41.6336    7.5147 N.pl3   1  UNL1       -0.2835
     21 H          13.8087   41.3589    6.6505 H       1  UNL1        0.1550
     22 C          14.2615   43.9289    5.7509 C.3     1  UNL1        0.0340
     23 C          15.4260   43.5534    6.6017 C.ar    1  UNL1        0.0099
     24 C          15.3817   42.4374    7.4540 C.ar    1  UNL1        0.1291
     25 C          17.6092   42.8787    8.1739 C.ar    1  UNL1        0.1003
     26 C          17.6864   43.9930    7.3383 C.ar    1  UNL1        0.0204
     27 C          16.5861   44.3284    6.5496 C.ar    1  UNL1        0.0001
     28 N          16.4724   42.1338    8.2134 N.ar    1  UNL1       -0.2294
@<TRIPOS>BOND
     1    22    23    1
     2    24    28   ar
     3    24    20    1
     4    25    26   ar
     5    27    23   ar
     6     2     6   ar
     7     3     7   ar
     8     4     1   ar
     9     5     3    1
    10     8     2    1
    11     8     9    1
    12     9    10    1
    13    10    11    1
    14    11    13    1
    15    12    13    1
    16    12     8    1
    17    17    19    1
    18    18    19    1
    19    20     1    1
    20    14    13    1
    21    14    19    1
    22    23    24   ar
    23    25    28   ar
    24    26    27   ar
    25     1     6   ar
    26     2     7   ar
    27     3     4   ar
    28    14    15    2
    29    14    16    2
    30    20    21    1
@<TRIPOS>MOLECULE
MolPort-020-278-648 MCULE-3254278991 PubChem-110255520
 28 30 0 0 0
SMALL
GASTEIGER

@<TRIPOS>ATOM
      1 C          14.4292   40.9822    8.8585 C.ar    1  UNL1        0.1357
      2 C          12.1201   40.9836    9.3946 C.ar    1  UNL1        0.1411
      3 C          13.6030   39.7050   10.7185 C.ar    1  UNL1        0.0635
      4 C          14.6752   40.1175    9.9305 C.ar    1  UNL1        0.0492
      5 C          13.8326   38.7865   11.8637 C.3     1  UNL1        0.0522
      6 N          13.1563   41.3938    8.6167 N.ar    1  UNL1       -0.2159
      7 N          12.3484   40.1419   10.4393 N.ar    1  UNL1       -0.2349
      8 C          10.7389   41.4585    9.0886 C.3     1  UNL1        0.0764
      9 C          10.1387   42.1792   10.2862 C.3     1  UNL1        0.0105
     10 C           8.7412   42.6566    9.9314 C.3     1  UNL1        0.0197
     11 C           7.8747   41.4671    9.5124 C.3     1  UNL1        0.0969
     12 C           9.8457   40.2852    8.6758 C.3     1  UNL1        0.1044
     13 N           8.4599   40.6951    8.4051 N.3     1  UNL1       -0.1449
     14 S           8.3419   41.5575    6.8942 S.O2    1  UNL1        0.1021
     15 O           7.4698   42.7691    7.0844 O.2     1  UNL1       -0.1408
     16 O           9.7037   42.0029    6.4358 O.2     1  UNL1       -0.1408
     17 C           8.6253   39.4843    5.3861 C.3     1  UNL1        0.1161
     18 C           6.5056   39.8471    6.2893 C.3     1  UNL1        0.1161
     19 N           7.6487   40.5155    5.6914 N.3     1  UNL1       -0.1424
     20 N          15.4819   41.4492    8.0029 N.pl3   1  UNL1       -0.2835
     21 H          16.2871   40.8846    7.9567 H       1  UNL1        0.1550
     22 C          17.7382   43.2529    8.2023 C.3     1  UNL1        0.0340
     23 C          16.5884   43.5264    7.2944 C.ar    1  UNL1        0.0099
     24 C          15.4985   42.6444    7.2055 C.ar    1  UNL1        0.1291
     25 C          14.4621   44.0619    5.5957 C.ar    1  UNL1        0.1003
     26 C          15.5287   44.9587    5.6602 C.ar    1  UNL1        0.0204
     27 C          16.5956   44.6852    6.5157 C.ar    1  UNL1        0.0001
     28 N          14.4697   42.9377    6.3604 N.ar    1  UNL1       -0.2294
@<TRIPOS>BOND
     1    22    23    1
     2    24    28   ar
     3    24    20    1
     4    25    26   ar
     5    27    23   ar
     6     2     6   ar
     7     3     7   ar
     8     4     1   ar
     9     5     3    1
    10     8     2    1
    11     8     9    1
    12     9    10    1
    13    10    11    1
    14    11    13    1
    15    12    13    1
    16    12     8    1
    17    17    19    1
    18    18    19    1
    19    20     1    1
    20    14    13    1
    21    14    19    1
    22    23    24   ar
    23    25    28   ar
    24    26    27   ar
    25     1     6   ar
    26     2     7   ar
    27     3     4   ar
    28    14    15    2
    29    14    16    2
    30    20    21    1
@<TRIPOS>MOLECULE
MolPort-020-278-648 MCULE-3254278991 PubChem-110255520
 28 30 0 0 0
SMALL
GASTEIGER

@<TRIPOS>ATOM
      1 C          12.7124   42.0941    6.4566 C.ar    1  UNL1        0.1357
      2 C          14.0459   41.0161    8.0935 C.ar    1  UNL1        0.1411
      3 C          14.9448   42.8563    6.9135 C.ar    1  UNL1        0.0635
      4 C          13.7582   42.9860    6.1953 C.ar    1  UNL1        0.0492
      5 C          16.0737   43.7882    6.6581 C.3     1  UNL1        0.0522
      6 N          12.8827   41.1300    7.4000 N.ar    1  UNL1       -0.2159
      7 N          15.0697   41.8779    7.8463 N.ar    1  UNL1       -0.2349
      8 C          14.1885   39.9395    9.1169 C.3     1  UNL1        0.0764
      9 C          13.2004   40.1432   10.2553 C.3     1  UNL1        0.0105
     10 C          13.3683   39.0233   11.2674 C.3     1  UNL1        0.0197
     11 C          14.8082   38.9996   11.7844 C.3     1  UNL1        0.0969
     12 C          15.6197   39.8998    9.6601 C.3     1  UNL1        0.1044
     13 N          15.8015   38.8821   10.7055 N.3     1  UNL1       -0.1449
     14 S          15.8175   37.2765   10.0256 S.O2    1  UNL1        0.1021
     15 O          14.7339   36.4562   10.6718 O.2     1  UNL1       -0.1408
     16 O          15.5701   37.3315    8.5427 O.2     1  UNL1       -0.1408
     17 C          17.8782   36.0762    9.0428 C.3     1  UNL1        0.1161
     18 C          18.2675   37.5860   10.7776 C.3     1  UNL1        0.1161
     19 N          17.3641   36.5448   10.3182 N.3     1  UNL1       -0.1424
     20 N          11.4618   42.1649    5.7573 N.pl3   1  UNL1       -0.2835
     21 H          11.4205   42.7968    5.0035 H       1  UNL1        0.1550
     22 C          10.7853   39.9068    4.0756 C.3     1  UNL1        0.0340
     23 C           9.9247   40.3241    5.2186 C.ar    1  UNL1        0.0099
     24 C          10.2624   41.4215    6.0283 C.ar    1  UNL1        0.1291
     25 C           8.3034   41.0774    7.3393 C.ar    1  UNL1        0.1003
     26 C           7.9390   39.9829    6.5549 C.ar    1  UNL1        0.0204
     27 C           8.7573   39.6079    5.4897 C.ar    1  UNL1        0.0001
     28 N           9.4434   41.7649    7.0625 N.ar    1  UNL1       -0.2294
@<TRIPOS>BOND
     1    22    23    1
     2    24    28   ar
     3    24    20    1
     4    25    26   ar
     5    27    23   ar
     6     2     6   ar
     7     3     7   ar
     8     4     1   ar
     9     5     3    1
    10     8     2    1
    11     8     9    1
    12     9    10    1
    13    10    11    1
    14    11    13    1
    15    12    13    1
    16    12     8    1
    17    17    19    1
    18    18    19    1
    19    20     1    1
    20    14    13    1
    21    14    19    1
    22    23    24   ar
    23    25    28   ar
    24    26    27   ar
    25     1     6   ar
    26     2     7   ar
    27     3     4   ar
    28    14    15    2
    29    14    16    2
    30    20    21    1
@<TRIPOS>MOLECULE
MolPort-020-278-648 MCULE-3254278991 PubChem-110255520
 28 30 0 0 0
SMALL
GASTEIGER

@<TRIPOS>ATOM
      1 C          14.5356   40.8076    8.8541 C.ar    1  UNL1        0.1357
      2 C          12.2501   40.2463    9.1383 C.ar    1  UNL1        0.1411
      3 C          13.8244   39.4787   10.7254 C.ar    1  UNL1        0.0635
      4 C          14.8512   40.1042   10.0216 C.ar    1  UNL1        0.0492
      5 C          14.1283   38.7237   11.9686 C.3     1  UNL1        0.0522
      6 N          13.2415   40.8608    8.4409 N.ar    1  UNL1       -0.2159
      7 N          12.5464   39.5587   10.2747 N.ar    1  UNL1       -0.2349
      8 C          10.8444   40.3286    8.6441 C.3     1  UNL1        0.0764
      9 C          10.4454   39.0427    7.9362 C.3     1  UNL1        0.0105
     10 C           9.0081   39.1613    7.4601 C.3     1  UNL1        0.0197
     11 C           8.8644   40.3693    6.5320 C.3     1  UNL1        0.0969
     12 C          10.6742   41.5246    7.7032 C.3     1  UNL1        0.1044
     13 N           9.3143   41.6247    7.1534 N.3     1  UNL1       -0.1449
     14 S           8.1856   42.1783    8.3617 S.O2    1  UNL1        0.1021
     15 O           7.1835   41.0897    8.6365 O.2     1  UNL1       -0.1408
     16 O           8.9059   42.5132    9.6393 O.2     1  UNL1       -0.1408
     17 C           6.9557   43.3348    6.4116 C.3     1  UNL1        0.1161
     18 C           6.1576   43.7629    8.5611 C.3     1  UNL1        0.1161
     19 N           7.3707   43.5959    7.7791 N.3     1  UNL1       -0.1424
     20 N          15.5386   41.4762    8.0762 N.pl3   1  UNL1       -0.2835
     21 H          16.4466   41.0983    8.1206 H       1  UNL1        0.1550
     22 C          17.4928   43.6089    8.2066 C.3     1  UNL1        0.0340
     23 C          16.3154   43.6735    7.2953 C.ar    1  UNL1        0.0099
     24 C          15.3730   42.6330    7.2400 C.ar    1  UNL1        0.1291
     25 C          14.1335   43.8216    5.5891 C.ar    1  UNL1        0.1003
     26 C          15.0505   44.8724    5.6195 C.ar    1  UNL1        0.0204
     27 C          16.1460   44.7935    6.4790 C.ar    1  UNL1        0.0001
     28 N          14.3122   42.7376    6.3903 N.ar    1  UNL1       -0.2294
@<TRIPOS>BOND
     1    22    23    1
     2    24    28   ar
     3    24    20    1
     4    25    26   ar
     5    27    23   ar
     6     2     6   ar
     7     3     7   ar
     8     4     1   ar
     9     5     3    1
    10     8     2    1
    11     8     9    1
    12     9    10    1
    13    10    11    1
    14    11    13    1
    15    12    13    1
    16    12     8    1
    17    17    19    1
    18    18    19    1
    19    20     1    1
    20    14    13    1
    21    14    19    1
    22    23    24   ar
    23    25    28   ar
    24    26    27   ar
    25     1     6   ar
    26     2     7   ar
    27     3     4   ar
    28    14    15    2
    29    14    16    2
    30    20    21    1
@<TRIPOS>MOLECULE
MolPort-020-278-648 MCULE-3254278991 PubChem-110255520
 28 30 0 0 0
SMALL
GASTEIGER

@<TRIPOS>ATOM
      1 C          12.5236   42.0342    6.5270 C.ar    1  UNL1        0.1357
      2 C          13.8067   40.7509    8.0522 C.ar    1  UNL1        0.1411
      3 C          14.7597   42.6960    7.1060 C.ar    1  UNL1        0.0635
      4 C          13.5894   42.9296    6.3872 C.ar    1  UNL1        0.0492
      5 C          15.9091   43.6289    6.9781 C.3     1  UNL1        0.0522
      6 N          12.6591   40.9657    7.3566 N.ar    1  UNL1       -0.2159
      7 N          14.8497   41.6154    7.9227 N.ar    1  UNL1       -0.2349
      8 C          13.9111   39.5621    8.9481 C.3     1  UNL1        0.0764
      9 C          12.9874   38.4491    8.4771 C.3     1  UNL1        0.0105
     10 C          13.1316   37.2556    9.4054 C.3     1  UNL1        0.0197
     11 C          12.8076   37.6705   10.8421 C.3     1  UNL1        0.0969
     12 C          13.5813   39.9468   10.3930 C.3     1  UNL1        0.1044
     13 N          13.6276   38.7987   11.3104 N.3     1  UNL1       -0.1449
     14 S          15.2713   38.3065   11.6210 S.O2    1  UNL1        0.1021
     15 O          15.8191   39.1117   12.7682 O.2     1  UNL1       -0.1408
     16 O          15.3236   36.8465   11.9798 O.2     1  UNL1       -0.1408
     17 C          17.3023   39.4899   10.5591 C.3     1  UNL1        0.1161
     18 C          16.8547   37.3172    9.8384 C.3     1  UNL1        0.1161
     19 N          16.2299   38.5782   10.1996 N.3     1  UNL1       -0.1424
     20 N          11.2880   42.2084    5.8191 N.pl3   1  UNL1       -0.2835
     21 H          11.1847   43.0548    5.3269 H       1  UNL1        0.1550
     22 C           9.2461   42.2821    7.8709 C.3     1  UNL1        0.0340
     23 C           9.1873   41.3195    6.7346 C.ar    1  UNL1        0.0099
     24 C          10.1835   41.2923    5.7444 C.ar    1  UNL1        0.1291
     25 C           9.0511   39.5166    4.6312 C.ar    1  UNL1        0.1003
     26 C           8.0452   39.5171    5.5978 C.ar    1  UNL1        0.0204
     27 C           8.1180   40.4255    6.6535 C.ar    1  UNL1        0.0001
     28 N          10.0861   40.3935    4.7241 N.ar    1  UNL1       -0.2294
@<TRIPOS>BOND
     1    22    23    1
     2    24    28   ar
     3    24    20    1
     4    25    26   ar
     5    27    23   ar
     6     2     6   ar
     7     3     7   ar
     8     4     1   ar
     9     5     3    1
    10     8     2    1
    11     8     9    1
    12     9    10    1
    13    10    11    1
    14    11    13    1
    15    12    13    1
    16    12     8    1
    17    17    19    1
    18    18    19    1
    19    20     1    1
    20    14    13    1
    21    14    19    1
    22    23    24   ar
    23    25    28   ar
    24    26    27   ar
    25     1     6   ar
    26     2     7   ar
    27     3     4   ar
    28    14    15    2
    29    14    16    2
    30    20    21    1
@<TRIPOS>MOLECULE
MolPort-020-278-648 MCULE-3254278991 PubChem-110255520
 28 30 0 0 0
SMALL
GASTEIGER

@<TRIPOS>ATOM
      1 C          14.9541   41.6642    7.9439 C.ar    1  UNL1        0.1357
      2 C          12.7671   41.9504    7.0751 C.ar    1  UNL1        0.1411
      3 C          14.4801   43.4202    6.3738 C.ar    1  UNL1        0.0635
      4 C          15.3959   42.7527    7.1840 C.ar    1  UNL1        0.0492
      5 C          14.9192   44.5801    5.5554 C.3     1  UNL1        0.0522
      6 N          13.6492   41.2900    7.8708 N.ar    1  UNL1       -0.2159
      7 N          13.1864   43.0110    6.3326 N.ar    1  UNL1       -0.2349
      8 C          11.3433   41.5060    7.0301 C.3     1  UNL1        0.0764
      9 C          10.5549   42.1037    8.1856 C.3     1  UNL1        0.0105
     10 C           9.1118   41.6387    8.0975 C.3     1  UNL1        0.0197
     11 C           9.0543   40.1099    8.1229 C.3     1  UNL1        0.0969
     12 C          11.2553   39.9777    7.0649 C.3     1  UNL1        0.1044
     13 N           9.8686   39.4893    7.0664 N.3     1  UNL1       -0.1449
     14 S           9.1315   39.6810    5.4978 S.O2    1  UNL1        0.1021
     15 O           7.7792   39.0207    5.5040 O.2     1  UNL1       -0.1408
     16 O           8.9614   41.1398    5.1721 O.2     1  UNL1       -0.1408
     17 C           9.2780   38.4461    3.2381 C.3     1  UNL1        0.1161
     18 C          10.9661   39.9857    3.7076 C.3     1  UNL1        0.1161
     19 N          10.1421   38.9430    4.2949 N.3     1  UNL1       -0.1424
     20 N          15.8381   40.9285    8.8014 N.pl3   1  UNL1       -0.2835
     21 H          16.7992   41.0028    8.6016 H       1  UNL1        0.1550
     22 C          17.9101   39.4345   10.1649 C.3     1  UNL1        0.0340
     23 C          16.4823   39.3666   10.5866 C.ar    1  UNL1        0.0099
     24 C          15.4848   40.0956    9.9179 C.ar    1  UNL1        0.1291
     25 C          13.8328   39.2203   11.3941 C.ar    1  UNL1        0.1003
     26 C          14.7985   38.4834   12.0799 C.ar    1  UNL1        0.0204
     27 C          16.1294   38.5601   11.6703 C.ar    1  UNL1        0.0001
     28 N          14.1923   40.0011   10.3406 N.ar    1  UNL1       -0.2294
@<TRIPOS>BOND
     1    22    23    1
     2    24    28   ar
     3    24    20    1
     4    25    26   ar
     5    27    23   ar
     6     2     6   ar
     7     3     7   ar
     8     4     1   ar
     9     5     3    1
    10     8     2    1
    11     8     9    1
    12     9    10    1
    13    10    11    1
    14    11    13    1
    15    12    13    1
    16    12     8    1
    17    17    19    1
    18    18    19    1
    19    20     1    1
    20    14    13    1
    21    14    19    1
    22    23    24   ar
    23    25    28   ar
    24    26    27   ar
    25     1     6   ar
    26     2     7   ar
    27     3     4   ar
    28    14    15    2
    29    14    16    2
    30    20    21    1
@<TRIPOS>MOLECULE
MolPort-020-278-648 MCULE-3254278991 PubChem-110255520
 28 30 0 0 0
SMALL
GASTEIGER

@<TRIPOS>ATOM
      1 C          13.2034   42.1340    6.6406 C.ar    1  UNL1        0.1357
      2 C          14.6729   41.1786    8.2366 C.ar    1  UNL1        0.1411
      3 C          15.3834   43.0727    7.0143 C.ar    1  UNL1        0.0635
      4 C          14.1663   43.1025    6.3372 C.ar    1  UNL1        0.0492
      5 C          16.4261   44.0877    6.7136 C.3     1  UNL1        0.0522
      6 N          13.4812   41.1948    7.5835 N.ar    1  UNL1       -0.2159
      7 N          15.6167   42.1157    7.9484 N.ar    1  UNL1       -0.2349
      8 C          14.9347   40.1259    9.2613 C.3     1  UNL1        0.0764
      9 C          16.3240   40.2887    9.8592 C.3     1  UNL1        0.0105
     10 C          16.5467   39.2088   10.9036 C.3     1  UNL1        0.0197
     11 C          16.3779   37.8269   10.2688 C.3     1  UNL1        0.0969
     12 C          14.7828   38.7303    8.6498 C.3     1  UNL1        0.1044
     13 N          15.0736   37.6555    9.6100 N.3     1  UNL1       -0.1449
     14 S          13.7878   37.4873   10.7757 S.O2    1  UNL1        0.1021
     15 O          14.1707   36.4387   11.7849 O.2     1  UNL1       -0.1408
     16 O          13.5526   38.7902   11.4901 O.2     1  UNL1       -0.1408
     17 C          11.7107   35.9583   10.7397 C.3     1  UNL1        0.1161
     18 C          11.4202   38.1465    9.9860 C.3     1  UNL1        0.1161
     19 N          12.3309   37.0147    9.9588 N.3     1  UNL1       -0.1424
     20 N          11.9278   42.1003    5.9850 N.pl3   1  UNL1       -0.2835
     21 H          11.8451   42.6418    5.1669 H       1  UNL1        0.1550
     22 C          10.8277   40.1076    4.1952 C.3     1  UNL1        0.0340
     23 C          10.2146   40.3997    5.5219 C.ar    1  UNL1        0.0099
     24 C          10.7566   41.3688    6.3826 C.ar    1  UNL1        0.1291
     25 C           9.0519   40.9218    7.9854 C.ar    1  UNL1        0.1003
     26 C           8.4885   39.9531    7.1547 C.ar    1  UNL1        0.0204
     27 C           9.0766   39.6941    5.9169 C.ar    1  UNL1        0.0001
     28 N          10.1605   41.6007    7.5864 N.ar    1  UNL1       -0.2294
@<TRIPOS>BOND
     1    22    23    1
     2    24    28   ar
     3    24    20    1
     4    25    26   ar
     5    27    23   ar
     6     2     6   ar
     7     3     7   ar
     8     4     1   ar
     9     5     3    1
    10     8     2    1
    11     8     9    1
    12     9    10    1
    13    10    11    1
    14    11    13    1
    15    12    13    1
    16    12     8    1
    17    17    19    1
    18    18    19    1
    19    20     1    1
    20    14    13    1
    21    14    19    1
    22    23    24   ar
    23    25    28   ar
    24    26    27   ar
    25     1     6   ar
    26     2     7   ar
    27     3     4   ar
    28    14    15    2
    29    14    16    2
    30    20    21    1
@<TRIPOS>MOLECULE
MolPort-020-278-648 MCULE-3254278991 PubChem-110255520
 28 30 0 0 0
SMALL
GASTEIGER

@<TRIPOS>ATOM
      1 C          12.1031   41.2838    6.8540 C.ar    1  UNL1        0.1357
      2 C           9.8053   41.6236    7.3278 C.ar    1  UNL1        0.1411
      3 C          10.4104   40.4733    5.3536 C.ar    1  UNL1        0.0635
      4 C          11.7587   40.6166    5.6735 C.ar    1  UNL1        0.0492
      5 C          10.0133   39.7700    4.1064 C.3     1  UNL1        0.0522
      6 N          11.1168   41.7716    7.6525 N.ar    1  UNL1       -0.2159
      7 N           9.4596   40.9770    6.1814 N.ar    1  UNL1       -0.2349
      8 C           8.7573   42.1792    8.2331 C.3     1  UNL1        0.0764
      9 C           9.0833   41.8737    9.6872 C.3     1  UNL1        0.0105
     10 C           8.0022   42.4648   10.5751 C.3     1  UNL1        0.0197
     11 C           6.6371   41.8947   10.1843 C.3     1  UNL1        0.0969
     12 C           7.3800   41.6166    7.8707 C.3     1  UNL1        0.1044
     13 N           6.3167   42.1008    8.7632 N.3     1  UNL1       -0.1449
     14 S           5.9277   43.7681    8.4328 S.O2    1  UNL1        0.1021
     15 O           6.9101   44.6553    9.1487 O.2     1  UNL1       -0.1408
     16 O           6.0070   44.0433    6.9559 O.2     1  UNL1       -0.1408
     17 C           3.6558   44.8979    7.9688 C.3     1  UNL1        0.1161
     18 C           3.6035   42.8398    9.0651 C.3     1  UNL1        0.1161
     19 N           4.3177   44.1028    8.9886 N.3     1  UNL1       -0.1424
     20 N          13.4695   41.4706    7.2494 N.pl3   1  UNL1       -0.2835
     21 H          13.8481   40.7824    7.8430 H       1  UNL1        0.1550
     22 C          16.0738   41.6594    8.5008 C.3     1  UNL1        0.0340
     23 C          15.6159   42.6455    7.4815 C.ar    1  UNL1        0.0099
     24 C          14.3500   42.5445    6.8805 C.ar    1  UNL1        0.1291
     25 C          14.7907   44.4958    5.5870 C.ar    1  UNL1        0.1003
     26 C          16.0540   44.6251    6.1645 C.ar    1  UNL1        0.0204
     27 C          16.4645   43.6923    7.1166 C.ar    1  UNL1        0.0001
     28 N          13.9757   43.4707    5.9530 N.ar    1  UNL1       -0.2294
@<TRIPOS>BOND
     1    22    23    1
     2    24    28   ar
     3    24    20    1
     4    25    26   ar
     5    27    23   ar
     6     2     6   ar
     7     3     7   ar
     8     4     1   ar
     9     5     3    1
    10     8     2    1
    11     8     9    1
    12     9    10    1
    13    10    11    1
    14    11    13    1
    15    12    13    1
    16    12     8    1
    17    17    19    1
    18    18    19    1
    19    20     1    1
    20    14    13    1
    21    14    19    1
    22    23    24   ar
    23    25    28   ar
    24    26    27   ar
    25     1     6   ar
    26     2     7   ar
    27     3     4   ar
    28    14    15    2
    29    14    16    2
    30    20    21    1
