@<TRIPOS>MOLECULE
MolPort-047-071-853 PubChem-132765792
 31 34 0 0 0
SMALL
GASTEIGER

@<TRIPOS>ATOM
      1 C          12.1667   37.9227    8.8967 C.3     1  UNL1        0.0424
      2 C          11.5026   37.5225   10.2168 C.3     1  UNL1        0.0078
      3 C          11.8537   36.0792   10.5729 C.3     1  UNL1        0.0219
      4 C          13.3681   35.9179   10.6662 C.3     1  UNL1        0.0937
      5 C          13.6825   37.7364    8.9750 C.3     1  UNL1        0.0980
      6 C          14.8322   35.5105    8.6602 C.2     1  UNL1        0.2492
      7 N          13.9834   36.3797    9.4249 N.am    1  UNL1       -0.2757
      8 O          15.0707   34.3423    9.0740 O.2     1  UNL1       -0.2699
      9 C          12.2092   41.2639    7.1299 C.ar    1  UNL1        0.1329
     10 C          12.5234   39.9506    7.4875 C.ar    1  UNL1        0.0302
     11 C          11.8183   39.3274    8.5198 C.ar    1  UNL1       -0.0165
     12 C          10.8048   40.0300    9.1845 C.ar    1  UNL1        0.0166
     13 C          10.5175   41.3408    8.8008 C.ar    1  UNL1        0.1000
     14 N          11.2181   41.9244    7.7919 N.ar    1  UNL1       -0.2291
     15 N          12.9410   41.8896    6.0692 N.pl3   1  UNL1       -0.2836
     16 H          12.7143   41.6147    5.1514 H       1  UNL1        0.1550
     17 C          15.0626   41.4577    7.9940 C.3     1  UNL1        0.0340
     18 C          15.0065   42.6795    7.1423 C.ar    1  UNL1        0.0099
     19 C          16.0037   43.6477    7.2723 C.ar    1  UNL1        0.0001
     20 C          15.9679   44.7978    6.4839 C.ar    1  UNL1        0.0204
     21 C          14.9269   44.9634    5.5700 C.ar    1  UNL1        0.1003
     22 C          13.9724   42.8778    6.2122 C.ar    1  UNL1        0.1291
     23 N          13.9628   44.0113    5.4550 N.ar    1  UNL1       -0.2294
     24 C          15.4242   35.9733    7.3948 C.2     1  UNL1        0.0595
     25 C          16.0683   35.1494    6.5734 C.2     1  UNL1        0.0232
     26 C          16.6561   35.6149    5.3128 C.ar    1  UNL1        0.0773
     27 C          17.9646   35.9942    5.1086 C.ar    1  UNL1        0.1175
     28 C          16.8579   36.1797    3.2789 C.ar    1  UNL1        0.1750
     29 N          18.0836   36.3506    3.8169 N.ar    1  UNL1       -0.2225
     30 N          15.9562   35.7278    4.1730 N.ar    1  UNL1       -0.3349
     31 H          15.0040   35.5269    4.0244 H       1  UNL1        0.1675
@<TRIPOS>BOND
     1    17    18    1
     2    19    20   ar
     3    21    23   ar
     4    22    15    1
     5    22    18   ar
     6     9    14   ar
     7    10    11   ar
     8    12    13   ar
     9     1    11    1
    10     1     2    1
    11     2     3    1
    12     3     4    1
    13     4     7    1
    14     5     7    1
    15     5     1    1
    16     6    24    1
    17    25    26    1
    18    27    29   ar
    19    28    30   ar
    20    15     9    1
    21     7     6   am
    22    30    26   ar
    23    18    19   ar
    24    20    21   ar
    25    22    23   ar
    26     9    10   ar
    27    11    12   ar
    28    13    14   ar
    29     6     8    2
    30    24    25    2
    31    26    27   ar
    32    28    29   ar
    33    15    16    1
    34    30    31    1
@<TRIPOS>MOLECULE
MolPort-047-071-853 PubChem-132765792
 31 34 0 0 0
SMALL
GASTEIGER

@<TRIPOS>ATOM
      1 C          11.7722   38.5728    8.7721 C.3     1  UNL1        0.0424
      2 C          10.5125   37.9404    9.3698 C.3     1  UNL1        0.0078
      3 C          10.8279   36.5558    9.9325 C.3     1  UNL1        0.0219
      4 C          11.9260   36.6584   10.9869 C.3     1  UNL1        0.0937
      5 C          12.8858   38.6524    9.8170 C.3     1  UNL1        0.0980
      6 C          14.3770   36.7052   10.4172 C.2     1  UNL1        0.2492
      7 N          13.0871   37.3351   10.4151 N.am    1  UNL1       -0.2757
      8 O          14.5181   35.5648   10.9392 O.2     1  UNL1       -0.2699
      9 C          12.0972   41.7287    6.7175 C.ar    1  UNL1        0.1329
     10 C          12.3584   40.4674    7.2582 C.ar    1  UNL1        0.0302
     11 C          11.4796   39.9219    8.1969 C.ar    1  UNL1       -0.0165
     12 C          10.3470   40.6494    8.5852 C.ar    1  UNL1        0.0166
     13 C          10.1172   41.9066    8.0244 C.ar    1  UNL1        0.1000
     14 N          10.9878   42.4148    7.1116 N.ar    1  UNL1       -0.2291
     15 N          13.0076   42.2750    5.7558 N.pl3   1  UNL1       -0.2836
     16 H          12.8916   41.9869    4.8216 H       1  UNL1        0.1550
     17 C          15.0062   41.6096    7.7446 C.3     1  UNL1        0.0340
     18 C          15.0474   42.8893    6.9819 C.ar    1  UNL1        0.0099
     19 C          16.0780   43.7979    7.2296 C.ar    1  UNL1        0.0001
     20 C          16.1331   45.0008    6.5257 C.ar    1  UNL1        0.0204
     21 C          15.1488   45.2790    5.5770 C.ar    1  UNL1        0.1003
     22 C          14.0724   43.2009    6.0197 C.ar    1  UNL1        0.1291
     23 N          14.1514   44.3839    5.3469 N.ar    1  UNL1       -0.2294
     24 C          15.5359   37.3809    9.8121 C.2     1  UNL1        0.0595
     25 C          16.5713   37.7931   10.5377 C.2     1  UNL1        0.0232
     26 C          17.7246   38.4655    9.9301 C.ar    1  UNL1        0.0773
     27 C          17.8315   39.8075    9.6380 C.ar    1  UNL1        0.1175
     28 C          19.6344   38.7916    9.0683 C.ar    1  UNL1        0.1750
     29 N          19.0450   40.0053    9.0921 N.ar    1  UNL1       -0.2225
     30 N          18.8484   37.8220    9.5770 N.ar    1  UNL1       -0.3349
     31 H          19.0516   36.8631    9.6684 H       1  UNL1        0.1675
@<TRIPOS>BOND
     1    17    18    1
     2    19    20   ar
     3    21    23   ar
     4    22    15    1
     5    22    18   ar
     6     9    14   ar
     7    10    11   ar
     8    12    13   ar
     9     1    11    1
    10     1     2    1
    11     2     3    1
    12     3     4    1
    13     4     7    1
    14     5     7    1
    15     5     1    1
    16     6    24    1
    17    25    26    1
    18    27    29   ar
    19    28    30   ar
    20    15     9    1
    21     7     6   am
    22    30    26   ar
    23    18    19   ar
    24    20    21   ar
    25    22    23   ar
    26     9    10   ar
    27    11    12   ar
    28    13    14   ar
    29     6     8    2
    30    24    25    2
    31    26    27   ar
    32    28    29   ar
    33    15    16    1
    34    30    31    1
@<TRIPOS>MOLECULE
MolPort-047-071-853 PubChem-132765792
 31 34 0 0 0
SMALL
GASTEIGER

@<TRIPOS>ATOM
      1 C          12.1638   38.4529    8.0893 C.3     1  UNL1        0.0424
      2 C          11.2109   38.4091    9.2868 C.3     1  UNL1        0.0078
      3 C          11.3158   37.0632   10.0012 C.3     1  UNL1        0.0219
      4 C          12.7531   36.8224   10.4532 C.3     1  UNL1        0.0937
      5 C          13.6026   38.1844    8.5324 C.3     1  UNL1        0.0980
      6 C          14.5268   35.8707    8.9425 C.2     1  UNL1        0.2492
      7 N          13.6501   36.9473    9.3075 N.am    1  UNL1       -0.2757
      8 O          14.5425   34.8129    9.6306 O.2     1  UNL1       -0.2699
      9 C          12.8123   42.0325    7.0631 C.ar    1  UNL1        0.1329
     10 C          12.9024   40.8091    7.7314 C.ar    1  UNL1        0.0302
     11 C          12.0612   39.7565    7.3635 C.ar    1  UNL1       -0.0165
     12 C          11.1359   39.9431    6.3283 C.ar    1  UNL1        0.0166
     13 C          11.0733   41.1786    5.6823 C.ar    1  UNL1        0.1000
     14 N          11.9042   42.1871    6.0589 N.ar    1  UNL1       -0.2291
     15 N          13.6818   43.1026    7.4517 N.pl3   1  UNL1       -0.2836
     16 H          13.2557   43.9049    7.8312 H       1  UNL1        0.1550
     17 C          14.9382   44.9122    5.5704 C.3     1  UNL1        0.0340
     18 C          15.7337   43.9940    6.4336 C.ar    1  UNL1        0.0099
     19 C          17.1264   44.0024    6.3364 C.ar    1  UNL1        0.0001
     20 C          17.8877   43.1501    7.1360 C.ar    1  UNL1        0.0204
     21 C          17.2395   42.2955    8.0281 C.ar    1  UNL1        0.1003
     22 C          15.1131   43.1208    7.3424 C.ar    1  UNL1        0.1291
     23 N          15.8822   42.2990    8.1113 N.ar    1  UNL1       -0.2294
     24 C          15.4060   35.9927    7.7686 C.2     1  UNL1        0.0595
     25 C          16.5272   35.2875    7.6496 C.2     1  UNL1        0.0232
     26 C          17.4000   35.4117    6.4774 C.ar    1  UNL1        0.0773
     27 C          17.2776   34.7284    5.2875 C.ar    1  UNL1        0.1175
     28 C          18.9709   36.0446    5.2014 C.ar    1  UNL1        0.1750
     29 N          18.2772   35.1356    4.4847 N.ar    1  UNL1       -0.2225
     30 N          18.4570   36.2377    6.4324 N.ar    1  UNL1       -0.3349
     31 H          18.7820   36.8446    7.1361 H       1  UNL1        0.1675
@<TRIPOS>BOND
     1    17    18    1
     2    19    20   ar
     3    21    23   ar
     4    22    15    1
     5    22    18   ar
     6     9    14   ar
     7    10    11   ar
     8    12    13   ar
     9     1    11    1
    10     1     2    1
    11     2     3    1
    12     3     4    1
    13     4     7    1
    14     5     7    1
    15     5     1    1
    16     6    24    1
    17    25    26    1
    18    27    29   ar
    19    28    30   ar
    20    15     9    1
    21     7     6   am
    22    30    26   ar
    23    18    19   ar
    24    20    21   ar
    25    22    23   ar
    26     9    10   ar
    27    11    12   ar
    28    13    14   ar
    29     6     8    2
    30    24    25    2
    31    26    27   ar
    32    28    29   ar
    33    15    16    1
    34    30    31    1
@<TRIPOS>MOLECULE
MolPort-047-071-853 PubChem-132765792
 31 34 0 0 0
SMALL
GASTEIGER

@<TRIPOS>ATOM
      1 C          10.7693   39.6480    7.2954 C.3     1  UNL1        0.0424
      2 C          11.3568   39.4903    5.8905 C.3     1  UNL1        0.0078
      3 C          10.2434   39.2566    4.8712 C.3     1  UNL1        0.0219
      4 C           9.2503   40.4144    4.9081 C.3     1  UNL1        0.0937
      5 C           9.7521   40.7892    7.3317 C.3     1  UNL1        0.0980
      6 C           7.3589   40.5494    6.5630 C.2     1  UNL1        0.2492
      7 N           8.7642   40.5945    6.2735 N.am    1  UNL1       -0.2757
      8 O           6.5302   40.3765    5.6269 O.2     1  UNL1       -0.2699
      9 C          14.0483   40.6800    8.8669 C.ar    1  UNL1        0.1329
     10 C          13.0341   40.4828    7.9267 C.ar    1  UNL1        0.0302
     11 C          11.8461   39.8575    8.3119 C.ar    1  UNL1       -0.0165
     12 C          11.6883   39.4343    9.6381 C.ar    1  UNL1        0.0166
     13 C          12.7223   39.6476   10.5508 C.ar    1  UNL1        0.1000
     14 N          13.8688   40.2597   10.1506 N.ar    1  UNL1       -0.2291
     15 N          15.2611   41.3228    8.4568 N.pl3   1  UNL1       -0.2836
     16 H          16.1003   40.9630    8.8249 H       1  UNL1        0.1550
     17 C          17.6896   42.9023    8.4578 C.3     1  UNL1        0.0340
     18 C          16.5464   43.2133    7.5536 C.ar    1  UNL1        0.0099
     19 C          16.6438   44.2972    6.6791 C.ar    1  UNL1        0.0001
     20 C          15.5841   44.6036    5.8255 C.ar    1  UNL1        0.0204
     21 C          14.4338   43.8151    5.8596 C.ar    1  UNL1        0.1003
     22 C          15.3736   42.4399    7.5622 C.ar    1  UNL1        0.1291
     23 N          14.3539   42.7626    6.7170 N.ar    1  UNL1       -0.2294
     24 C           6.8790   40.7017    7.9459 C.2     1  UNL1        0.0595
     25 C           5.5969   40.9124    8.2294 C.2     1  UNL1        0.0232
     26 C           5.1230   41.0626    9.6093 C.ar    1  UNL1        0.0773
     27 C           5.7737   41.7146   10.6336 C.ar    1  UNL1        0.1175
     28 C           3.9111   40.9184   11.3433 C.ar    1  UNL1        0.1750
     29 N           4.9986   41.6183   11.7288 N.ar    1  UNL1       -0.2225
     30 N           3.9564   40.5613   10.0444 N.ar    1  UNL1       -0.3349
     31 H           3.2881   40.0505    9.5329 H       1  UNL1        0.1675
@<TRIPOS>BOND
     1    17    18    1
     2    19    20   ar
     3    21    23   ar
     4    22    15    1
     5    22    18   ar
     6     9    14   ar
     7    10    11   ar
     8    12    13   ar
     9     1    11    1
    10     1     2    1
    11     2     3    1
    12     3     4    1
    13     4     7    1
    14     5     7    1
    15     5     1    1
    16     6    24    1
    17    25    26    1
    18    27    29   ar
    19    28    30   ar
    20    15     9    1
    21     7     6   am
    22    30    26   ar
    23    18    19   ar
    24    20    21   ar
    25    22    23   ar
    26     9    10   ar
    27    11    12   ar
    28    13    14   ar
    29     6     8    2
    30    24    25    2
    31    26    27   ar
    32    28    29   ar
    33    15    16    1
    34    30    31    1
@<TRIPOS>MOLECULE
MolPort-047-071-853 PubChem-132765792
 31 34 0 0 0
SMALL
GASTEIGER

@<TRIPOS>ATOM
      1 C          13.7966   42.7845    7.0312 C.3     1  UNL1        0.0424
      2 C          13.5620   43.8023    5.9118 C.3     1  UNL1        0.0078
      3 C          14.6391   44.8850    5.9428 C.3     1  UNL1        0.0219
      4 C          16.0205   44.2513    5.8078 C.3     1  UNL1        0.0937
      5 C          15.1908   42.1665    6.9173 C.3     1  UNL1        0.0980
      6 C          17.2884   43.2923    7.7588 C.2     1  UNL1        0.2492
      7 N          16.1893   43.2296    6.8375 N.am    1  UNL1       -0.2757
      8 O          18.1331   44.2253    7.6659 O.2     1  UNL1       -0.2699
      9 C          10.4815   41.0450    6.5108 C.ar    1  UNL1        0.1329
     10 C          11.4775   42.0246    6.5126 C.ar    1  UNL1        0.0302
     11 C          12.7398   41.7263    7.0306 C.ar    1  UNL1       -0.0165
     12 C          12.9897   40.4469    7.5437 C.ar    1  UNL1        0.0166
     13 C          11.9714   39.4927    7.5258 C.ar    1  UNL1        0.1000
     14 N          10.7512   39.8082    7.0150 N.ar    1  UNL1       -0.2291
     15 N           9.1918   41.3659    5.9761 N.pl3   1  UNL1       -0.2836
     16 H           8.9777   41.0032    5.0862 H       1  UNL1        0.1550
     17 C           8.6652   41.0076    8.8022 C.3     1  UNL1        0.0340
     18 C           7.9163   41.9994    7.9794 C.ar    1  UNL1        0.0099
     19 C           6.9305   42.7814    8.5841 C.ar    1  UNL1        0.0001
     20 C           6.2192   43.7147    7.8303 C.ar    1  UNL1        0.0204
     21 C           6.5067   43.8530    6.4722 C.ar    1  UNL1        0.1003
     22 C           8.1806   42.1641    6.6096 C.ar    1  UNL1        0.1291
     23 N           7.4698   43.0840    5.8976 N.ar    1  UNL1       -0.2294
     24 C          17.4346   42.2756    8.8127 C.2     1  UNL1        0.0595
     25 C          16.5977   41.2481    8.9239 C.2     1  UNL1        0.0232
     26 C          16.7478   40.2367    9.9755 C.ar    1  UNL1        0.0773
     27 C          15.7575   39.4199   10.4754 C.ar    1  UNL1        0.1175
     28 C          17.6142   39.0068   11.4699 C.ar    1  UNL1        0.1750
     29 N          16.3153   38.6438   11.4220 N.ar    1  UNL1       -0.2225
     30 N          17.9132   39.9849   10.5921 N.ar    1  UNL1       -0.3349
     31 H          18.7852   40.4154   10.4386 H       1  UNL1        0.1675
@<TRIPOS>BOND
     1    17    18    1
     2    19    20   ar
     3    21    23   ar
     4    22    15    1
     5    22    18   ar
     6     9    14   ar
     7    10    11   ar
     8    12    13   ar
     9     1    11    1
    10     1     2    1
    11     2     3    1
    12     3     4    1
    13     4     7    1
    14     5     7    1
    15     5     1    1
    16     6    24    1
    17    25    26    1
    18    27    29   ar
    19    28    30   ar
    20    15     9    1
    21     7     6   am
    22    30    26   ar
    23    18    19   ar
    24    20    21   ar
    25    22    23   ar
    26     9    10   ar
    27    11    12   ar
    28    13    14   ar
    29     6     8    2
    30    24    25    2
    31    26    27   ar
    32    28    29   ar
    33    15    16    1
    34    30    31    1
@<TRIPOS>MOLECULE
MolPort-047-071-853 PubChem-132765792
 31 34 0 0 0
SMALL
GASTEIGER

@<TRIPOS>ATOM
      1 C          14.6133   38.2391    9.4844 C.3     1  UNL1        0.0424
      2 C          15.4346   37.2993   10.3711 C.3     1  UNL1        0.0078
      3 C          16.9231   37.6207   10.2517 C.3     1  UNL1        0.0219
      4 C          17.1758   39.0753   10.6368 C.3     1  UNL1        0.0937
      5 C          14.8839   39.6998    9.8473 C.3     1  UNL1        0.0980
      6 C          16.8937   40.9908    9.0289 C.2     1  UNL1        0.2492
      7 N          16.3236   39.9463    9.8319 N.am    1  UNL1       -0.2757
      8 O          18.1420   41.1768    9.0346 O.2     1  UNL1       -0.2699
      9 C          10.8624   38.5691    9.1543 C.ar    1  UNL1        0.1329
     10 C          12.2288   38.8483    9.0742 C.ar    1  UNL1        0.0302
     11 C          13.1533   37.9270    9.5717 C.ar    1  UNL1       -0.0165
     12 C          12.6965   36.7340   10.1467 C.ar    1  UNL1        0.0166
     13 C          11.3242   36.4877   10.2100 C.ar    1  UNL1        0.1000
     14 N          10.4448   37.4006    9.7175 N.ar    1  UNL1       -0.2291
     15 N           9.9264   39.5237    8.6397 N.pl3   1  UNL1       -0.2836
     16 H           9.3631   39.2313    7.8871 H       1  UNL1        0.1550
     17 C           7.4127   40.8607    8.1049 C.3     1  UNL1        0.0340
     18 C           8.5138   41.5231    8.8599 C.ar    1  UNL1        0.0099
     19 C           8.3335   42.8269    9.3253 C.ar    1  UNL1        0.0001
     20 C           9.3527   43.4631   10.0337 C.ar    1  UNL1        0.0204
     21 C          10.5466   42.7803   10.2678 C.ar    1  UNL1        0.1003
     22 C           9.7286   40.8644    9.1131 C.ar    1  UNL1        0.1291
     23 N          10.7072   41.5107    9.8080 N.ar    1  UNL1       -0.2294
     24 C          16.0308   41.8449    8.1972 C.2     1  UNL1        0.0595
     25 C          16.4961   42.9210    7.5696 C.2     1  UNL1        0.0232
     26 C          15.6325   43.7688    6.7410 C.ar    1  UNL1        0.0773
     27 C          14.3230   43.5164    6.3958 C.ar    1  UNL1        0.1175
     28 C          14.9587   45.3762    5.5333 C.ar    1  UNL1        0.1750
     29 N          13.9039   44.5402    5.6303 N.ar    1  UNL1       -0.2225
     30 N          16.0386   44.9307    6.2056 N.ar    1  UNL1       -0.3349
     31 H          16.9216   45.3588    6.2855 H       1  UNL1        0.1675
@<TRIPOS>BOND
     1    17    18    1
     2    19    20   ar
     3    21    23   ar
     4    22    15    1
     5    22    18   ar
     6     9    14   ar
     7    10    11   ar
     8    12    13   ar
     9     1    11    1
    10     1     2    1
    11     2     3    1
    12     3     4    1
    13     4     7    1
    14     5     7    1
    15     5     1    1
    16     6    24    1
    17    25    26    1
    18    27    29   ar
    19    28    30   ar
    20    15     9    1
    21     7     6   am
    22    30    26   ar
    23    18    19   ar
    24    20    21   ar
    25    22    23   ar
    26     9    10   ar
    27    11    12   ar
    28    13    14   ar
    29     6     8    2
    30    24    25    2
    31    26    27   ar
    32    28    29   ar
    33    15    16    1
    34    30    31    1
@<TRIPOS>MOLECULE
MolPort-047-071-853 PubChem-132765792
 31 34 0 0 0
SMALL
GASTEIGER

@<TRIPOS>ATOM
      1 C          11.4112   40.6143    9.3263 C.3     1  UNL1        0.0424
      2 C          10.9758   39.3509   10.0734 C.3     1  UNL1        0.0078
      3 C          12.0501   38.2706    9.9629 C.3     1  UNL1        0.0219
      4 C          13.3727   38.7906   10.5182 C.3     1  UNL1        0.0937
      5 C          12.7505   41.1242    9.8600 C.3     1  UNL1        0.0980
      6 C          14.9829   40.1716    9.1640 C.2     1  UNL1        0.2492
      7 N          13.7261   40.0372    9.8445 N.am    1  UNL1       -0.2757
      8 O          15.8038   39.2129    9.1661 O.2     1  UNL1       -0.2699
      9 C           8.1759   42.4910    8.7806 C.ar    1  UNL1        0.1329
     10 C           9.1605   41.5020    8.7171 C.ar    1  UNL1        0.0302
     11 C          10.3630   41.6780    9.4055 C.ar    1  UNL1       -0.0165
     12 C          10.5662   42.8470   10.1503 C.ar    1  UNL1        0.0166
     13 C           9.5608   43.8142   10.1917 C.ar    1  UNL1        0.1000
     14 N           8.3987   43.6182    9.5133 N.ar    1  UNL1       -0.2291
     15 N           6.9478   42.2961    8.0693 N.pl3   1  UNL1       -0.2836
     16 H           7.0111   42.2075    7.0909 H       1  UNL1        0.1550
     17 C           5.2022   44.6044    7.9389 C.3     1  UNL1        0.0340
     18 C           4.7784   43.3301    8.5851 C.ar    1  UNL1        0.0099
     19 C           3.5031   43.2412    9.1460 C.ar    1  UNL1        0.0001
     20 C           3.0888   42.0568    9.7552 C.ar    1  UNL1        0.0204
     21 C           3.9633   40.9705    9.7946 C.ar    1  UNL1        0.1003
     22 C           5.6339   42.2173    8.6422 C.ar    1  UNL1        0.1291
     23 N           5.2024   41.0726    9.2439 N.ar    1  UNL1       -0.2294
     24 C          15.3189   41.4205    8.4618 C.2     1  UNL1        0.0595
     25 C          14.6319   41.8431    7.4045 C.2     1  UNL1        0.0232
     26 C          14.9699   43.0890    6.7083 C.ar    1  UNL1        0.0773
     27 C          14.2982   43.6393    5.6389 C.ar    1  UNL1        0.1175
     28 C          15.9626   44.8848    6.1731 C.ar    1  UNL1        0.1750
     29 N          14.9341   44.7771    5.3061 N.ar    1  UNL1       -0.2225
     30 N          16.0130   43.8619    7.0494 N.ar    1  UNL1       -0.3349
     31 H          16.6646   43.7154    7.7727 H       1  UNL1        0.1675
@<TRIPOS>BOND
     1    17    18    1
     2    19    20   ar
     3    21    23   ar
     4    22    15    1
     5    22    18   ar
     6     9    14   ar
     7    10    11   ar
     8    12    13   ar
     9     1    11    1
    10     1     2    1
    11     2     3    1
    12     3     4    1
    13     4     7    1
    14     5     7    1
    15     5     1    1
    16     6    24    1
    17    25    26    1
    18    27    29   ar
    19    28    30   ar
    20    15     9    1
    21     7     6   am
    22    30    26   ar
    23    18    19   ar
    24    20    21   ar
    25    22    23   ar
    26     9    10   ar
    27    11    12   ar
    28    13    14   ar
    29     6     8    2
    30    24    25    2
    31    26    27   ar
    32    28    29   ar
    33    15    16    1
    34    30    31    1
@<TRIPOS>MOLECULE
MolPort-047-071-853 PubChem-132765792
 31 34 0 0 0
SMALL
GASTEIGER

@<TRIPOS>ATOM
      1 C          11.5809   38.8259    8.6991 C.3     1  UNL1        0.0424
      2 C          10.2980   38.0449    8.4020 C.3     1  UNL1        0.0078
      3 C           9.2761   38.9442    7.7090 C.3     1  UNL1        0.0219
      4 C           9.8670   39.5105    6.4214 C.3     1  UNL1        0.0937
      5 C          12.1626   39.4196    7.4154 C.3     1  UNL1        0.0980
      6 C          11.3282   41.5589    6.3653 C.2     1  UNL1        0.2492
      7 N          11.1289   40.1822    6.7200 N.am    1  UNL1       -0.2757
      8 O          10.4145   42.1919    5.7675 O.2     1  UNL1       -0.2699
      9 C          14.8969   37.4256    9.8522 C.ar    1  UNL1        0.1329
     10 C          13.9478   38.2236    9.2089 C.ar    1  UNL1        0.0302
     11 C          12.5876   37.9676    9.3966 C.ar    1  UNL1       -0.0165
     12 C          12.1931   36.9111   10.2277 C.ar    1  UNL1        0.0166
     13 C          13.1685   36.1343   10.8547 C.ar    1  UNL1        0.1000
     14 N          14.4863   36.4049   10.6562 N.ar    1  UNL1       -0.2291
     15 N          16.2883   37.7004    9.6501 N.pl3   1  UNL1       -0.2836
     16 H          16.5260   38.6211    9.3948 H       1  UNL1        0.1550
     17 C          16.6790   35.6826    7.6085 C.3     1  UNL1        0.0340
     18 C          17.5695   35.7831    8.7993 C.ar    1  UNL1        0.0099
     19 C          18.6249   34.8801    8.9397 C.ar    1  UNL1        0.0001
     20 C          19.4688   34.9586   10.0475 C.ar    1  UNL1        0.0204
     21 C          19.2426   35.9470   11.0058 C.ar    1  UNL1        0.1003
     22 C          17.3700   36.7661    9.7829 C.ar    1  UNL1        0.1291
     23 N          18.2104   36.8193   10.8549 N.ar    1  UNL1       -0.2294
     24 C          12.5914   42.2372    6.6968 C.2     1  UNL1        0.0595
     25 C          13.3007   42.8948    5.7841 C.2     1  UNL1        0.0232
     26 C          14.5588   43.5701    6.1192 C.ar    1  UNL1        0.0773
     27 C          15.3707   43.3027    7.1995 C.ar    1  UNL1        0.1175
     28 C          16.2144   44.8920    6.0292 C.ar    1  UNL1        0.1750
     29 N          16.4176   44.1451    7.1346 N.ar    1  UNL1       -0.2225
     30 N          15.0791   44.5633    5.3814 N.ar    1  UNL1       -0.3349
     31 H          14.7153   44.9602    4.5571 H       1  UNL1        0.1675
@<TRIPOS>BOND
     1    17    18    1
     2    19    20   ar
     3    21    23   ar
     4    22    15    1
     5    22    18   ar
     6     9    14   ar
     7    10    11   ar
     8    12    13   ar
     9     1    11    1
    10     1     2    1
    11     2     3    1
    12     3     4    1
    13     4     7    1
    14     5     7    1
    15     5     1    1
    16     6    24    1
    17    25    26    1
    18    27    29   ar
    19    28    30   ar
    20    15     9    1
    21     7     6   am
    22    30    26   ar
    23    18    19   ar
    24    20    21   ar
    25    22    23   ar
    26     9    10   ar
    27    11    12   ar
    28    13    14   ar
    29     6     8    2
    30    24    25    2
    31    26    27   ar
    32    28    29   ar
    33    15    16    1
    34    30    31    1
@<TRIPOS>MOLECULE
MolPort-047-071-853 PubChem-132765792
 31 34 0 0 0
SMALL
GASTEIGER

@<TRIPOS>ATOM
      1 C          12.0644   38.9153    8.9361 C.3     1  UNL1        0.0424
      2 C          10.6880   38.4329    9.4019 C.3     1  UNL1        0.0078
      3 C          10.6787   36.9125    9.5486 C.3     1  UNL1        0.0219
      4 C          11.7592   36.4763   10.5336 C.3     1  UNL1        0.0937
      5 C          13.1550   38.4569    9.9051 C.3     1  UNL1        0.0980
      6 C          14.1651   36.1429    9.8744 C.2     1  UNL1        0.2492
      7 N          13.0490   37.0145   10.1099 N.am    1  UNL1       -0.2757
      8 O          14.0410   34.9004   10.0574 O.2     1  UNL1       -0.2699
      9 C          13.0884   42.3638    7.7759 C.ar    1  UNL1        0.1329
     10 C          13.0542   40.9767    7.9382 C.ar    1  UNL1        0.0302
     11 C          12.0882   40.4010    8.7666 C.ar    1  UNL1       -0.0165
     12 C          11.1661   41.2243    9.4258 C.ar    1  UNL1        0.0166
     13 C          11.2294   42.6061    9.2405 C.ar    1  UNL1        0.1000
     14 N          12.1791   43.1416    8.4278 N.ar    1  UNL1       -0.2291
     15 N          14.0850   42.9396    6.9229 N.pl3   1  UNL1       -0.2836
     16 H          13.7824   43.2664    6.0450 H       1  UNL1        0.1550
     17 C          15.5414   45.1898    5.8239 C.3     1  UNL1        0.0340
     18 C          16.1981   44.1742    6.6947 C.ar    1  UNL1        0.0099
     19 C          17.5556   44.3067    6.9926 C.ar    1  UNL1        0.0001
     20 C          18.1875   43.3660    7.8058 C.ar    1  UNL1        0.0204
     21 C          17.4463   42.2984    8.3129 C.ar    1  UNL1        0.1003
     22 C          15.4813   43.0871    7.2219 C.ar    1  UNL1        0.1291
     23 N          16.1248   42.1830    8.0138 N.ar    1  UNL1       -0.2294
     24 C          15.4530   36.6900    9.4185 C.2     1  UNL1        0.0595
     25 C          16.3664   37.1488   10.2693 C.2     1  UNL1        0.0232
     26 C          17.6490   37.6923    9.8103 C.ar    1  UNL1        0.0773
     27 C          18.6519   36.9983    9.1698 C.ar    1  UNL1        0.1175
     28 C          19.2297   39.0504    9.4186 C.ar    1  UNL1        0.1750
     29 N          19.6498   37.8667    8.9253 N.ar    1  UNL1       -0.2225
     30 N          18.0020   38.9774    9.9701 N.ar    1  UNL1       -0.3349
     31 H          17.4838   39.7000   10.3927 H       1  UNL1        0.1675
@<TRIPOS>BOND
     1    17    18    1
     2    19    20   ar
     3    21    23   ar
     4    22    15    1
     5    22    18   ar
     6     9    14   ar
     7    10    11   ar
     8    12    13   ar
     9     1    11    1
    10     1     2    1
    11     2     3    1
    12     3     4    1
    13     4     7    1
    14     5     7    1
    15     5     1    1
    16     6    24    1
    17    25    26    1
    18    27    29   ar
    19    28    30   ar
    20    15     9    1
    21     7     6   am
    22    30    26   ar
    23    18    19   ar
    24    20    21   ar
    25    22    23   ar
    26     9    10   ar
    27    11    12   ar
    28    13    14   ar
    29     6     8    2
    30    24    25    2
    31    26    27   ar
    32    28    29   ar
    33    15    16    1
    34    30    31    1
@<TRIPOS>MOLECULE
MolPort-047-071-853 PubChem-132765792
 31 34 0 0 0
SMALL
GASTEIGER

@<TRIPOS>ATOM
      1 C          10.6473   41.7495    9.5751 C.3     1  UNL1        0.0424
      2 C          10.3070   42.7186   10.7106 C.3     1  UNL1        0.0078
      3 C           8.9583   43.3876   10.4528 C.3     1  UNL1        0.0219
      4 C           7.8690   42.3288   10.3096 C.3     1  UNL1        0.0937
      5 C           9.5452   40.7026    9.4086 C.3     1  UNL1        0.0980
      6 C           7.3979   41.1263    8.1496 C.2     1  UNL1        0.2492
      7 N           8.2539   41.3723    9.2754 N.am    1  UNL1       -0.2757
      8 O           6.2893   41.7231    8.0614 O.2     1  UNL1       -0.2699
      9 C          14.2928   40.8363    9.1713 C.ar    1  UNL1        0.1329
     10 C          13.0491   41.4411    8.9741 C.ar    1  UNL1        0.0302
     11 C          11.9751   41.0988    9.7989 C.ar    1  UNL1       -0.0165
     12 C          12.1600   40.1507   10.8136 C.ar    1  UNL1        0.0166
     13 C          13.4163   39.5666   10.9823 C.ar    1  UNL1        0.1000
     14 N          14.4459   39.9180   10.1663 N.ar    1  UNL1       -0.2291
     15 N          15.3848   41.1977    8.3174 N.pl3   1  UNL1       -0.2836
     16 H          16.1630   40.5947    8.3132 H       1  UNL1        0.1550
     17 C          17.5824   43.0585    8.6342 C.3     1  UNL1        0.0340
     18 C          16.5175   43.2617    7.6115 C.ar    1  UNL1        0.0099
     19 C          16.5762   44.3808    6.7789 C.ar    1  UNL1        0.0001
     20 C          15.5886   44.5878    5.8160 C.ar    1  UNL1        0.0204
     21 C          14.5488   43.6650    5.6994 C.ar    1  UNL1        0.1003
     22 C          15.4565   42.3522    7.4673 C.ar    1  UNL1        0.1291
     23 N          14.5054   42.5798    6.5177 N.ar    1  UNL1       -0.2294
     24 C           7.8066   40.1834    7.0962 C.2     1  UNL1        0.0595
     25 C           8.6829   40.5152    6.1525 C.2     1  UNL1        0.0232
     26 C           9.0880   39.5718    5.1050 C.ar    1  UNL1        0.0773
     27 C           9.2857   38.2166    5.2535 C.ar    1  UNL1        0.1175
     28 C           9.6609   38.7893    3.2193 C.ar    1  UNL1        0.1750
     29 N           9.6486   37.7287    4.0535 N.ar    1  UNL1       -0.2225
     30 N           9.3205   39.9390    3.8351 N.ar    1  UNL1       -0.3349
     31 H           9.2571   40.8401    3.4437 H       1  UNL1        0.1675
@<TRIPOS>BOND
     1    17    18    1
     2    19    20   ar
     3    21    23   ar
     4    22    15    1
     5    22    18   ar
     6     9    14   ar
     7    10    11   ar
     8    12    13   ar
     9     1    11    1
    10     1     2    1
    11     2     3    1
    12     3     4    1
    13     4     7    1
    14     5     7    1
    15     5     1    1
    16     6    24    1
    17    25    26    1
    18    27    29   ar
    19    28    30   ar
    20    15     9    1
    21     7     6   am
    22    30    26   ar
    23    18    19   ar
    24    20    21   ar
    25    22    23   ar
    26     9    10   ar
    27    11    12   ar
    28    13    14   ar
    29     6     8    2
    30    24    25    2
    31    26    27   ar
    32    28    29   ar
    33    15    16    1
    34    30    31    1
