@<TRIPOS>MOLECULE
Molport-053-365-321
 17 18 0 0 0
SMALL
GASTEIGER

@<TRIPOS>ATOM
      1 C          13.3999   39.8927    8.6092 C.ar    1  UNL1        0.1396
      2 C          14.0629   39.2112    9.6200 C.ar    1  UNL1        0.1335
      3 C          15.3188   40.7818    8.9254 C.ar    1  UNL1        0.1493
      4 C          16.3801   41.6664    8.7444 C.ar    1  UNL1        0.0441
      5 C          16.2399   42.6643    7.7653 C.ar    1  UNL1        0.0391
      6 C          15.0583   42.7497    7.0030 C.ar    1  UNL1        0.0259
      7 C          14.0217   41.8324    7.2285 C.ar    1  UNL1        0.0831
      8 N          15.2805   39.7711    9.8194 N.ar    1  UNL1       -0.2235
      9 N          14.1995   40.8856    8.1873 N.ar    1  UNL1       -0.2772
     10 BR         17.6575   43.9082    7.4665 Br      1  UNL1       -0.0488
     11 C          10.9364   40.4880    8.4742 C.2     1  UNL1        0.2420
     12 O          11.0240   41.3401    9.3989 O.2     1  UNL1       -0.2734
     13 N          12.0628   39.6620    8.1349 N.am    1  UNL1       -0.2681
     14 H          11.9092   38.8915    7.5416 H       1  UNL1        0.1563
     15 C           8.4895   40.9746    8.5587 C.3     1  UNL1        0.0273
     16 C           9.6163   40.2995    7.7801 C.3     1  UNL1        0.1561
     17 CL          9.2677   38.5606    7.5744 Cl      1  UNL1       -0.1052
@<TRIPOS>BOND
     1    16    15    1
     2    16    17    1
     3    16    11    1
     4    11    13   am
     5     2     8   ar
     6     3     4   ar
     7     5    10    1
     8     5     6   ar
     9     7     9   ar
    10    13     1    1
    11     9     1   ar
    12     9     3   ar
    13    11    12    2
    14     1     2   ar
    15     3     8   ar
    16     4     5   ar
    17     6     7   ar
    18    13    14    1
@<TRIPOS>MOLECULE
Molport-053-365-321
 17 18 0 0 0
SMALL
GASTEIGER

@<TRIPOS>ATOM
      1 C          11.9335   41.7866    8.4317 C.ar    1  UNL1        0.1396
      2 C          12.7627   42.2036    7.4000 C.ar    1  UNL1        0.1335
      3 C          13.8978   40.9982    8.7362 C.ar    1  UNL1        0.1493
      4 C          14.9249   40.2875    9.3540 C.ar    1  UNL1        0.0441
      5 C          14.6222   39.6002   10.5415 C.ar    1  UNL1        0.0391
      6 C          13.3181   39.6417   11.0729 C.ar    1  UNL1        0.0259
      7 C          12.3231   40.3730   10.4081 C.ar    1  UNL1        0.0831
      8 N          14.0086   41.7076    7.5931 N.ar    1  UNL1       -0.2235
      9 N          12.6600   41.0201    9.2612 N.ar    1  UNL1       -0.2772
     10 BR         15.9844   38.6076   11.4386 Br      1  UNL1       -0.0488
     11 C           9.9709   43.0593    9.4166 C.2     1  UNL1        0.2420
     12 O          10.6945   43.6527   10.2611 O.2     1  UNL1       -0.2734
     13 N          10.5250   42.0363    8.5723 N.am    1  UNL1       -0.2681
     14 H           9.9020   41.4726    8.0593 H       1  UNL1        0.1563
     15 C           7.8539   42.7466    8.1315 C.3     1  UNL1        0.0273
     16 C           8.5052   43.3875    9.3548 C.3     1  UNL1        0.1561
     17 CL          8.2676   45.1567    9.3239 Cl      1  UNL1       -0.1052
@<TRIPOS>BOND
     1    16    15    1
     2    16    17    1
     3    16    11    1
     4    11    13   am
     5     2     8   ar
     6     3     4   ar
     7     5    10    1
     8     5     6   ar
     9     7     9   ar
    10    13     1    1
    11     9     1   ar
    12     9     3   ar
    13    11    12    2
    14     1     2   ar
    15     3     8   ar
    16     4     5   ar
    17     6     7   ar
    18    13    14    1
@<TRIPOS>MOLECULE
Molport-053-365-321
 17 18 0 0 0
SMALL
GASTEIGER

@<TRIPOS>ATOM
      1 C          12.1787   41.0710    7.1290 C.ar    1  UNL1        0.1396
      2 C          12.5608   40.1220    8.0666 C.ar    1  UNL1        0.1335
      3 C          14.1984   41.4376    7.7284 C.ar    1  UNL1        0.1493
      4 C          15.4406   42.0674    7.7721 C.ar    1  UNL1        0.0441
      5 C          15.6310   43.1952    6.9560 C.ar    1  UNL1        0.0391
      6 C          14.5884   43.6567    6.1285 C.ar    1  UNL1        0.0259
      7 C          13.3580   42.9835    6.1253 C.ar    1  UNL1        0.0831
      8 N          13.8415   40.3508    8.4451 N.ar    1  UNL1       -0.2235
      9 N          13.2175   41.8990    6.9326 N.ar    1  UNL1       -0.2772
     10 BR         17.3101   44.1042    6.9679 Br      1  UNL1       -0.0488
     11 C           9.7368   41.7587    7.2042 C.2     1  UNL1        0.2420
     12 O           9.7508   41.9141    8.4550 O.2     1  UNL1       -0.2734
     13 N          10.8845   41.2249    6.5229 N.am    1  UNL1       -0.2681
     14 H          10.7776   40.9478    5.5843 H       1  UNL1        0.1563
     15 C           7.5924   43.0362    7.2326 C.3     1  UNL1        0.0273
     16 C           8.4777   42.0730    6.4452 C.3     1  UNL1        0.1561
     17 CL          7.5833   40.5714    6.0808 Cl      1  UNL1       -0.1052
@<TRIPOS>BOND
     1    16    15    1
     2    16    17    1
     3    16    11    1
     4    11    13   am
     5     2     8   ar
     6     3     4   ar
     7     5    10    1
     8     5     6   ar
     9     7     9   ar
    10    13     1    1
    11     9     1   ar
    12     9     3   ar
    13    11    12    2
    14     1     2   ar
    15     3     8   ar
    16     4     5   ar
    17     6     7   ar
    18    13    14    1
@<TRIPOS>MOLECULE
Molport-053-365-321
 17 18 0 0 0
SMALL
GASTEIGER

@<TRIPOS>ATOM
      1 C          12.6157   41.7641    6.8176 C.ar    1  UNL1        0.1396
      2 C          13.3142   42.8341    6.2763 C.ar    1  UNL1        0.1335
      3 C          14.5832   41.8240    7.6533 C.ar    1  UNL1        0.1493
      4 C          15.6651   41.4407    8.4433 C.ar    1  UNL1        0.0441
      5 C          15.5081   40.3107    9.2635 C.ar    1  UNL1        0.0391
      6 C          14.2894   39.6039    9.2724 C.ar    1  UNL1        0.0259
      7 C          13.2337   40.0350    8.4559 C.ar    1  UNL1        0.0831
      8 N          14.5600   42.8755    6.8072 N.ar    1  UNL1       -0.2235
      9 N          13.4309   41.1311    7.6768 N.ar    1  UNL1       -0.2772
     10 BR         16.9518   39.7325   10.3713 Br      1  UNL1       -0.0488
     11 C          10.1106   41.6886    7.2179 C.2     1  UNL1        0.2420
     12 O          10.2089   42.2315    8.3513 O.2     1  UNL1       -0.2734
     13 N          11.2889   41.3285    6.4775 N.am    1  UNL1       -0.2681
     14 H          11.1805   40.7482    5.6896 H       1  UNL1        0.1563
     15 C           7.8057   40.9364    7.8116 C.3     1  UNL1        0.0273
     16 C           8.7445   41.3592    6.6840 C.3     1  UNL1        0.1561
     17 CL          8.8544   40.0675    5.4564 Cl      1  UNL1       -0.1052
@<TRIPOS>BOND
     1    16    15    1
     2    16    17    1
     3    16    11    1
     4    11    13   am
     5     2     8   ar
     6     3     4   ar
     7     5    10    1
     8     5     6   ar
     9     7     9   ar
    10    13     1    1
    11     9     1   ar
    12     9     3   ar
    13    11    12    2
    14     1     2   ar
    15     3     8   ar
    16     4     5   ar
    17     6     7   ar
    18    13    14    1
@<TRIPOS>MOLECULE
Molport-053-365-321
 17 18 0 0 0
SMALL
GASTEIGER

@<TRIPOS>ATOM
      1 C          13.9502   37.0381   10.0207 C.ar    1  UNL1        0.1396
      2 C          13.2849   36.0178   10.6856 C.ar    1  UNL1        0.1335
      3 C          11.8512   37.1942    9.6429 C.ar    1  UNL1        0.1493
      4 C          10.6661   37.7051    9.1175 C.ar    1  UNL1        0.0441
      5 C          10.7524   38.8357    8.2878 C.ar    1  UNL1        0.0391
      6 C          12.0047   39.4181    8.0098 C.ar    1  UNL1        0.0259
      7 C          13.1655   38.8611    8.5659 C.ar    1  UNL1        0.0831
      8 N          11.9544   36.1172   10.4501 N.ar    1  UNL1       -0.2235
      9 N          13.0351   37.7660    9.3603 N.ar    1  UNL1       -0.2772
     10 BR          9.1657   39.5861    7.5359 Br      1  UNL1       -0.0488
     11 C          16.1650   37.7090   11.0630 C.2     1  UNL1        0.2420
     12 O          15.6140   38.1616   12.1024 O.2     1  UNL1       -0.2734
     13 N          15.3696   37.2545    9.9552 N.am    1  UNL1       -0.2681
     14 H          15.8248   37.0810    9.0996 H       1  UNL1        0.1563
     15 C          18.1779   39.0924   10.5479 C.3     1  UNL1        0.0273
     16 C          17.6654   37.7178   10.9713 C.3     1  UNL1        0.1561
     17 CL         18.2228   36.4711    9.8213 Cl      1  UNL1       -0.1052
@<TRIPOS>BOND
     1    16    15    1
     2    16    17    1
     3    16    11    1
     4    11    13   am
     5     2     8   ar
     6     3     4   ar
     7     5    10    1
     8     5     6   ar
     9     7     9   ar
    10    13     1    1
    11     9     1   ar
    12     9     3   ar
    13    11    12    2
    14     1     2   ar
    15     3     8   ar
    16     4     5   ar
    17     6     7   ar
    18    13    14    1
@<TRIPOS>MOLECULE
Molport-053-365-321
 17 18 0 0 0
SMALL
GASTEIGER

@<TRIPOS>ATOM
      1 C          11.0846   41.4375    6.6295 C.ar    1  UNL1        0.1396
      2 C          10.3525   41.6184    5.4645 C.ar    1  UNL1        0.1335
      3 C           9.0121   41.6375    7.1166 C.ar    1  UNL1        0.1493
      4 C           7.8716   41.7056    7.9144 C.ar    1  UNL1        0.0441
      5 C           8.0372   41.5809    9.3040 C.ar    1  UNL1        0.0391
      6 C           9.3216   41.3933    9.8518 C.ar    1  UNL1        0.0259
      7 C          10.4346   41.3330    9.0006 C.ar    1  UNL1        0.0831
      8 N           9.0386   41.7420    5.7711 N.ar    1  UNL1       -0.2235
      9 N          10.2279   41.4611    7.6633 N.ar    1  UNL1       -0.2772
     10 BR          6.5150   41.6645   10.4537 Br      1  UNL1       -0.0488
     11 C          13.4108   42.4509    6.6859 C.2     1  UNL1        0.2420
     12 O          13.0027   43.5744    6.2859 O.2     1  UNL1       -0.2734
     13 N          12.5126   41.3307    6.7531 N.am    1  UNL1       -0.2681
     14 H          12.8990   40.4359    6.8923 H       1  UNL1        0.1563
     15 C          15.0374   41.4907    8.3179 C.3     1  UNL1        0.0273
     16 C          14.8660   42.2826    7.0237 C.3     1  UNL1        0.1561
     17 CL         15.6568   43.8768    7.1670 Cl      1  UNL1       -0.1052
@<TRIPOS>BOND
     1    16    15    1
     2    16    17    1
     3    16    11    1
     4    11    13   am
     5     2     8   ar
     6     3     4   ar
     7     5    10    1
     8     5     6   ar
     9     7     9   ar
    10    13     1    1
    11     9     1   ar
    12     9     3   ar
    13    11    12    2
    14     1     2   ar
    15     3     8   ar
    16     4     5   ar
    17     6     7   ar
    18    13    14    1
@<TRIPOS>MOLECULE
Molport-053-365-321
 17 18 0 0 0
SMALL
GASTEIGER

@<TRIPOS>ATOM
      1 C          14.9673   37.1153    9.4201 C.ar    1  UNL1        0.1396
      2 C          14.2076   35.9656    9.2563 C.ar    1  UNL1        0.1335
      3 C          12.9098   37.5645    9.7909 C.ar    1  UNL1        0.1493
      4 C          11.7902   38.3302   10.1101 C.ar    1  UNL1        0.0441
      5 C          11.9877   39.6936   10.3867 C.ar    1  UNL1        0.0391
      6 C          13.2822   40.2475   10.3381 C.ar    1  UNL1        0.0259
      7 C          14.3730   39.4291   10.0105 C.ar    1  UNL1        0.0831
      8 N          12.9040   36.2477    9.4942 N.ar    1  UNL1       -0.2235
      9 N          14.1351   38.1169    9.7478 N.ar    1  UNL1       -0.2772
     10 BR         10.4956   40.7988   10.8317 Br      1  UNL1       -0.0488
     11 C          17.3687   37.1773   10.2394 C.2     1  UNL1        0.2420
     12 O          17.0241   37.1870   11.4519 O.2     1  UNL1       -0.2734
     13 N          16.3798   37.2647    9.1998 N.am    1  UNL1       -0.2681
     14 H          16.6887   37.4374    8.2811 H       1  UNL1        0.1563
     15 C          19.5591   36.0790   10.7156 C.3     1  UNL1        0.0273
     16 C          18.8324   37.1446    9.8984 C.3     1  UNL1        0.1561
     17 CL         19.5695   38.7462   10.1794 Cl      1  UNL1       -0.1052
@<TRIPOS>BOND
     1    16    15    1
     2    16    17    1
     3    16    11    1
     4    11    13   am
     5     2     8   ar
     6     3     4   ar
     7     5    10    1
     8     5     6   ar
     9     7     9   ar
    10    13     1    1
    11     9     1   ar
    12     9     3   ar
    13    11    12    2
    14     1     2   ar
    15     3     8   ar
    16     4     5   ar
    17     6     7   ar
    18    13    14    1
@<TRIPOS>MOLECULE
Molport-053-365-321
 17 18 0 0 0
SMALL
GASTEIGER

@<TRIPOS>ATOM
      1 C           7.6671   42.7861    8.5514 C.ar    1  UNL1        0.1396
      2 C           7.1649   43.6652    7.6023 C.ar    1  UNL1        0.1335
      3 C           5.5935   43.1391    8.9368 C.ar    1  UNL1        0.1493
      4 C           4.3616   43.0358    9.5796 C.ar    1  UNL1        0.0441
      5 C           4.2826   42.2091   10.7130 C.ar    1  UNL1        0.0391
      6 C           5.4222   41.5164   11.1671 C.ar    1  UNL1        0.0259
      7 C           6.6371   41.6582   10.4808 C.ar    1  UNL1        0.0831
      8 N           5.8502   43.8874    7.8431 N.ar    1  UNL1       -0.2235
      9 N           6.6680   42.4703    9.3912 N.ar    1  UNL1       -0.2772
     10 BR          2.6236   42.0232   11.6399 Br      1  UNL1       -0.0488
     11 C           9.9563   42.8925    9.6420 C.2     1  UNL1        0.2420
     12 O           9.6882   43.9618   10.2532 O.2     1  UNL1       -0.2734
     13 N           9.0266   42.3418    8.6941 N.am    1  UNL1       -0.2681
     14 H           9.3400   41.6163    8.1069 H       1  UNL1        0.1563
     15 C          11.9554   41.8846    8.5379 C.3     1  UNL1        0.0273
     16 C          11.2922   42.2405    9.8664 C.3     1  UNL1        0.1561
     17 CL         11.1061   40.7783   10.8738 Cl      1  UNL1       -0.1052
@<TRIPOS>BOND
     1    16    15    1
     2    16    17    1
     3    16    11    1
     4    11    13   am
     5     2     8   ar
     6     3     4   ar
     7     5    10    1
     8     5     6   ar
     9     7     9   ar
    10    13     1    1
    11     9     1   ar
    12     9     3   ar
    13    11    12    2
    14     1     2   ar
    15     3     8   ar
    16     4     5   ar
    17     6     7   ar
    18    13    14    1
@<TRIPOS>MOLECULE
Molport-053-365-321
 17 18 0 0 0
SMALL
GASTEIGER

@<TRIPOS>ATOM
      1 C          13.9626   40.3562    9.0774 C.ar    1  UNL1        0.1396
      2 C          14.1446   41.1833    7.9780 C.ar    1  UNL1        0.1335
      3 C          12.3165   41.7130    8.9289 C.ar    1  UNL1        0.1493
      4 C          11.1090   42.3231    9.2627 C.ar    1  UNL1        0.0441
      5 C          10.4289   41.8499   10.3975 C.ar    1  UNL1        0.0391
      6 C          10.9669   40.7929   11.1579 C.ar    1  UNL1        0.0259
      7 C          12.1868   40.2164   10.7753 C.ar    1  UNL1        0.0831
      8 N          13.1007   42.0415    7.8804 N.ar    1  UNL1       -0.2235
      9 N          12.8112   40.7077    9.6724 N.ar    1  UNL1       -0.2772
     10 BR          8.7687   42.6419   10.9094 Br      1  UNL1       -0.0488
     11 C          16.2558   39.5918    9.8511 C.2     1  UNL1        0.2420
     12 O          16.8142   40.6514    9.4582 O.2     1  UNL1       -0.2734
     13 N          14.8659   39.3536    9.5722 N.am    1  UNL1       -0.2681
     14 H          14.5112   38.4489    9.7296 H       1  UNL1        0.1563
     15 C          18.5556   38.9488   10.5778 C.3     1  UNL1        0.0273
     16 C          17.0819   38.5503   10.5529 C.3     1  UNL1        0.1561
     17 CL         16.8855   36.9644    9.7567 Cl      1  UNL1       -0.1052
@<TRIPOS>BOND
     1    16    15    1
     2    16    17    1
     3    16    11    1
     4    11    13   am
     5     2     8   ar
     6     3     4   ar
     7     5    10    1
     8     5     6   ar
     9     7     9   ar
    10    13     1    1
    11     9     1   ar
    12     9     3   ar
    13    11    12    2
    14     1     2   ar
    15     3     8   ar
    16     4     5   ar
    17     6     7   ar
    18    13    14    1
@<TRIPOS>MOLECULE
Molport-053-365-321
 17 18 0 0 0
SMALL
GASTEIGER

@<TRIPOS>ATOM
      1 C           8.4156   41.9571    9.8675 C.ar    1  UNL1        0.1396
      2 C           8.7936   42.7818   10.9176 C.ar    1  UNL1        0.1335
      3 C          10.4535   42.5503    9.6068 C.ar    1  UNL1        0.1493
      4 C          11.7099   42.6344    9.0102 C.ar    1  UNL1        0.0441
      5 C          11.9103   41.9376    7.8067 C.ar    1  UNL1        0.0391
      6 C          10.8632   41.1848    7.2395 C.ar    1  UNL1        0.0259
      7 C           9.6184   41.1361    7.8838 C.ar    1  UNL1        0.0831
      8 N          10.0857   43.1559   10.7558 N.ar    1  UNL1       -0.2235
      9 N           9.4687   41.8276    9.0444 N.ar    1  UNL1       -0.2772
     10 BR         13.6090   42.0107    6.9378 Br      1  UNL1       -0.0488
     11 C           6.0713   41.3308   10.6116 C.2     1  UNL1        0.2420
     12 O           6.3237   41.5615   11.8249 O.2     1  UNL1       -0.2734
     13 N           7.1142   41.3973    9.6246 N.am    1  UNL1       -0.2681
     14 H           6.9257   41.0375    8.7278 H       1  UNL1        0.1563
     15 C           3.8383   42.1286    9.8319 C.3     1  UNL1        0.0273
     16 C           4.6796   40.9159   10.2234 C.3     1  UNL1        0.1561
     17 CL          3.9002   40.0318   11.5644 Cl      1  UNL1       -0.1052
@<TRIPOS>BOND
     1    16    15    1
     2    16    17    1
     3    16    11    1
     4    11    13   am
     5     2     8   ar
     6     3     4   ar
     7     5    10    1
     8     5     6   ar
     9     7     9   ar
    10    13     1    1
    11     9     1   ar
    12     9     3   ar
    13    11    12    2
    14     1     2   ar
    15     3     8   ar
    16     4     5   ar
    17     6     7   ar
    18    13    14    1
