@<TRIPOS>MOLECULE
Molport-020-293-022 MCULE-4916102994 PubChem-110265489
 30 33 0 0 0
SMALL
GASTEIGER

@<TRIPOS>ATOM
      1 C           7.8036   41.7500   11.2607 C.3     1  UNL1        0.0721
      2 C           9.1399   41.4472   11.9620 C.3     1  UNL1        0.0178
      3 C          10.2788   41.2328   10.9668 C.3     1  UNL1        0.0087
      4 C          10.3649   42.3980    9.9732 C.3     1  UNL1        0.0563
      5 C           8.9809   42.9227    9.5600 C.3     1  UNL1        0.0780
      6 N           7.9503   41.9175    9.8104 N.3     1  UNL1       -0.2720
      7 C          11.1746   42.0150    8.7754 C.ar    1  UNL1        0.0614
      8 C          13.3132   41.5019    7.8573 C.ar    1  UNL1        0.1328
      9 C          12.7363   41.3085    6.5948 C.ar    1  UNL1        0.0344
     10 C          11.3609   41.4730    6.4321 C.ar    1  UNL1        0.0041
     11 C          10.5710   41.8282    7.5246 C.ar    1  UNL1        0.0149
     12 N          12.5187   41.8483    8.9070 N.ar    1  UNL1       -0.2348
     13 N          14.7220   41.3451    8.0790 N.pl3   1  UNL1       -0.2834
     14 H          15.0099   40.4829    8.4572 H       1  UNL1        0.1550
     15 C          15.7591   42.2991    7.8134 C.ar    1  UNL1        0.1332
     16 C          16.9754   42.1831    8.4921 C.ar    1  UNL1        0.0345
     17 C          17.9926   43.1058    8.2418 C.ar    1  UNL1        0.0045
     18 C          17.7880   44.1329    7.3197 C.ar    1  UNL1        0.0208
     19 C          16.5609   44.2198    6.6594 C.ar    1  UNL1        0.1003
     20 N          15.5825   43.3107    6.9174 N.ar    1  UNL1       -0.2290
     21 C           6.7007   42.4666    9.3154 C.3     1  UNL1        0.0768
     22 C           5.6873   41.3506    9.1297 C.3     1  UNL1        0.0437
     23 C           2.6708   41.6234   12.1738 C.ar    1  UNL1        0.1387
     24 C           2.8127   42.6438   11.2272 C.ar    1  UNL1        0.0366
     25 C           3.7915   42.5534   10.2329 C.ar    1  UNL1       -0.0011
     26 C           4.6331   41.4376   10.1771 C.ar    1  UNL1       -0.0206
     27 C           4.5006   40.4166   11.1238 C.ar    1  UNL1       -0.0011
     28 C           3.5221   40.5073   12.1177 C.ar    1  UNL1        0.0366
     29 C           0.7891   42.8468   13.2133 C.3     1  UNL1        0.2525
     30 O           1.6826   41.7433   13.1547 O.3     1  UNL1       -0.4714
@<TRIPOS>BOND
     1    29    30    1
     2    23    30    1
     3    24    25   ar
     4    26    27   ar
     5    28    23   ar
     6    22    26    1
     7    22    21    1
     8    21     6    1
     9     1     6    1
    10     1     2    1
    11     2     3    1
    12     3     4    1
    13     4     5    1
    14     4     7    1
    15     5     6    1
    16     8    12   ar
    17     8    13    1
    18     9    10   ar
    19    11     7   ar
    20    15    20   ar
    21    16    17   ar
    22    18    19   ar
    23    13    15    1
    24    23    24   ar
    25    25    26   ar
    26    27    28   ar
    27     7    12   ar
    28     8     9   ar
    29    10    11   ar
    30    15    16   ar
    31    17    18   ar
    32    19    20   ar
    33    13    14    1
@<TRIPOS>MOLECULE
Molport-020-293-022 MCULE-4916102994 PubChem-110265489
 30 33 0 0 0
SMALL
GASTEIGER

@<TRIPOS>ATOM
      1 C           7.1183   41.6995   11.3185 C.3     1  UNL1        0.0721
      2 C           8.0952   41.4506   12.4818 C.3     1  UNL1        0.0178
      3 C           9.4954   41.0857   11.9920 C.3     1  UNL1        0.0087
      4 C          10.0077   42.1172   10.9791 C.3     1  UNL1        0.0563
      5 C           8.8994   42.6229   10.0423 C.3     1  UNL1        0.0780
      6 N           7.7808   41.6833   10.0094 N.3     1  UNL1       -0.2720
      7 C          11.1612   41.5688   10.2009 C.ar    1  UNL1        0.0614
      8 C          12.5512   41.7110    8.2703 C.ar    1  UNL1        0.1328
      9 C          13.2876   40.6010    8.7060 C.ar    1  UNL1        0.0344
     10 C          12.9479   39.9751    9.9052 C.ar    1  UNL1        0.0041
     11 C          11.8799   40.4571   10.6607 C.ar    1  UNL1        0.0149
     12 N          11.5133   42.1609    9.0275 N.ar    1  UNL1       -0.2348
     13 N          12.8590   42.3914    7.0452 N.pl3   1  UNL1       -0.2834
     14 H          12.1878   42.3223    6.3283 H       1  UNL1        0.1550
     15 C          14.0313   43.1605    6.7445 C.ar    1  UNL1        0.1332
     16 C          15.2653   42.7379    7.2467 C.ar    1  UNL1        0.0345
     17 C          16.4136   43.4783    6.9605 C.ar    1  UNL1        0.0045
     18 C          16.3210   44.6302    6.1785 C.ar    1  UNL1        0.0208
     19 C          15.0727   45.0242    5.6929 C.ar    1  UNL1        0.1003
     20 N          13.9657   44.2888    5.9830 N.ar    1  UNL1       -0.2290
     21 C           6.8285   42.1997    9.0426 C.3     1  UNL1        0.0768
     22 C           7.5689   42.7477    7.8350 C.3     1  UNL1        0.0437
     23 C           8.7985   39.5085    5.2980 C.ar    1  UNL1        0.1387
     24 C           7.5292   39.5016    5.8866 C.ar    1  UNL1        0.0366
     25 C           7.1264   40.5582    6.7089 C.ar    1  UNL1       -0.0011
     26 C           7.9911   41.6321    6.9445 C.ar    1  UNL1       -0.0206
     27 C           9.2636   41.6426    6.3640 C.ar    1  UNL1       -0.0011
     28 C           9.6660   40.5862    5.5421 C.ar    1  UNL1        0.0366
     29 C           9.5042   38.5990    3.1088 C.3     1  UNL1        0.2525
     30 O           9.1710   38.4378    4.4808 O.3     1  UNL1       -0.4714
@<TRIPOS>BOND
     1    29    30    1
     2    23    30    1
     3    24    25   ar
     4    26    27   ar
     5    28    23   ar
     6    22    26    1
     7    22    21    1
     8    21     6    1
     9     1     6    1
    10     1     2    1
    11     2     3    1
    12     3     4    1
    13     4     5    1
    14     4     7    1
    15     5     6    1
    16     8    12   ar
    17     8    13    1
    18     9    10   ar
    19    11     7   ar
    20    15    20   ar
    21    16    17   ar
    22    18    19   ar
    23    13    15    1
    24    23    24   ar
    25    25    26   ar
    26    27    28   ar
    27     7    12   ar
    28     8     9   ar
    29    10    11   ar
    30    15    16   ar
    31    17    18   ar
    32    19    20   ar
    33    13    14    1
@<TRIPOS>MOLECULE
Molport-020-293-022 MCULE-4916102994 PubChem-110265489
 30 33 0 0 0
SMALL
GASTEIGER

@<TRIPOS>ATOM
      1 C          10.7175   41.1327    8.3298 C.3     1  UNL1        0.0721
      2 C          10.3938   40.7818    9.7931 C.3     1  UNL1        0.0178
      3 C          10.8781   39.3836   10.1725 C.3     1  UNL1        0.0087
      4 C          12.3593   39.2018    9.8179 C.3     1  UNL1        0.0563
      5 C          12.7362   39.8871    8.4951 C.3     1  UNL1        0.0780
      6 N          11.5491   40.1168    7.6746 N.3     1  UNL1       -0.2720
      7 C          12.7252   37.7518    9.7959 C.ar    1  UNL1        0.0614
      8 C          14.2453   36.0580    9.0886 C.ar    1  UNL1        0.1328
      9 C          13.4610   35.0788    9.7132 C.ar    1  UNL1        0.0344
     10 C          12.2967   35.4518   10.3844 C.ar    1  UNL1        0.0041
     11 C          11.9219   36.7939   10.4291 C.ar    1  UNL1        0.0149
     12 N          13.8561   37.3612    9.1478 N.ar    1  UNL1       -0.2348
     13 N          15.4518   35.7283    8.3856 N.pl3   1  UNL1       -0.2834
     14 H          15.3401   35.3013    7.5056 H       1  UNL1        0.1550
     15 C          16.8015   35.9487    8.8168 C.ar    1  UNL1        0.1332
     16 C          17.7086   34.8864    8.7714 C.ar    1  UNL1        0.0345
     17 C          19.0253   35.0889    9.1884 C.ar    1  UNL1        0.0045
     18 C          19.4242   36.3455    9.6458 C.ar    1  UNL1        0.0208
     19 C          18.4925   37.3848    9.6783 C.ar    1  UNL1        0.1003
     20 N          17.2141   37.1669    9.2674 N.ar    1  UNL1       -0.2290
     21 C          12.0104   40.6863    6.4211 C.3     1  UNL1        0.0768
     22 C          12.0408   42.2012    6.5258 C.3     1  UNL1        0.0437
     23 C          16.0895   43.6309    6.4588 C.ar    1  UNL1        0.1387
     24 C          15.7084   42.6319    7.3613 C.ar    1  UNL1        0.0366
     25 C          14.3915   42.1626    7.3804 C.ar    1  UNL1       -0.0011
     26 C          13.4471   42.6879    6.4924 C.ar    1  UNL1       -0.0206
     27 C          13.8199   43.6908    5.5915 C.ar    1  UNL1       -0.0011
     28 C          15.1364   44.1599    5.5727 C.ar    1  UNL1        0.0366
     29 C          18.2202   44.0741    7.6341 C.3     1  UNL1        0.2525
     30 O          17.4135   44.0783    6.4643 O.3     1  UNL1       -0.4714
@<TRIPOS>BOND
     1    29    30    1
     2    23    30    1
     3    24    25   ar
     4    26    27   ar
     5    28    23   ar
     6    22    26    1
     7    22    21    1
     8    21     6    1
     9     1     6    1
    10     1     2    1
    11     2     3    1
    12     3     4    1
    13     4     5    1
    14     4     7    1
    15     5     6    1
    16     8    12   ar
    17     8    13    1
    18     9    10   ar
    19    11     7   ar
    20    15    20   ar
    21    16    17   ar
    22    18    19   ar
    23    13    15    1
    24    23    24   ar
    25    25    26   ar
    26    27    28   ar
    27     7    12   ar
    28     8     9   ar
    29    10    11   ar
    30    15    16   ar
    31    17    18   ar
    32    19    20   ar
    33    13    14    1
@<TRIPOS>MOLECULE
Molport-020-293-022 MCULE-4916102994 PubChem-110265489
 30 33 0 0 0
SMALL
GASTEIGER

@<TRIPOS>ATOM
      1 C          10.6051   39.3437    8.4514 C.3     1  UNL1        0.0721
      2 C          11.0917   38.1314    9.2656 C.3     1  UNL1        0.0178
      3 C          12.5906   38.1932    9.5535 C.3     1  UNL1        0.0087
      4 C          12.9728   39.5393   10.1816 C.3     1  UNL1        0.0563
      5 C          12.1881   40.7145    9.5777 C.3     1  UNL1        0.0780
      6 N          11.6491   40.3580    8.2672 N.3     1  UNL1       -0.2720
      7 C          14.4473   39.7704   10.0841 C.ar    1  UNL1        0.0614
      8 C          16.2406   41.0446    9.1673 C.ar    1  UNL1        0.1328
      9 C          17.1693   40.2521    9.8556 C.ar    1  UNL1        0.0344
     10 C          16.7204   39.2088   10.6651 C.ar    1  UNL1        0.0041
     11 C          15.3534   38.9619   10.7836 C.ar    1  UNL1        0.0149
     12 N          14.9116   40.7817    9.3010 N.ar    1  UNL1       -0.2348
     13 N          16.6489   42.1299    8.3225 N.pl3   1  UNL1       -0.2834
     14 H          17.5959   42.3932    8.3788 H       1  UNL1        0.1550
     15 C          15.8369   42.8755    7.4054 C.ar    1  UNL1        0.1332
     16 C          14.6439   42.3116    6.9448 C.ar    1  UNL1        0.0345
     17 C          13.8450   43.0279    6.0519 C.ar    1  UNL1        0.0045
     18 C          14.2422   44.2965    5.6276 C.ar    1  UNL1        0.0208
     19 C          15.4399   44.8302    6.1071 C.ar    1  UNL1        0.1003
     20 N          16.2041   44.1161    6.9768 N.ar    1  UNL1       -0.2290
     21 C          11.0013   41.5472    7.7432 C.3     1  UNL1        0.0768
     22 C           9.7068   41.1625    7.0481 C.3     1  UNL1        0.0437
     23 C           6.6107   43.9855    7.9893 C.ar    1  UNL1        0.1387
     24 C           7.5874   43.6661    8.9390 C.ar    1  UNL1        0.0366
     25 C           8.5985   42.7507    8.6316 C.ar    1  UNL1       -0.0011
     26 C           8.6410   42.1511    7.3685 C.ar    1  UNL1       -0.0206
     27 C           7.6645   42.4614    6.4165 C.ar    1  UNL1       -0.0011
     28 C           6.6538   43.3765    6.7241 C.ar    1  UNL1        0.0366
     29 C           4.2973   44.8391    7.7958 C.3     1  UNL1        0.2525
     30 O           5.6136   44.9046    8.3272 O.3     1  UNL1       -0.4714
@<TRIPOS>BOND
     1    29    30    1
     2    23    30    1
     3    24    25   ar
     4    26    27   ar
     5    28    23   ar
     6    22    26    1
     7    22    21    1
     8    21     6    1
     9     1     6    1
    10     1     2    1
    11     2     3    1
    12     3     4    1
    13     4     5    1
    14     4     7    1
    15     5     6    1
    16     8    12   ar
    17     8    13    1
    18     9    10   ar
    19    11     7   ar
    20    15    20   ar
    21    16    17   ar
    22    18    19   ar
    23    13    15    1
    24    23    24   ar
    25    25    26   ar
    26    27    28   ar
    27     7    12   ar
    28     8     9   ar
    29    10    11   ar
    30    15    16   ar
    31    17    18   ar
    32    19    20   ar
    33    13    14    1
@<TRIPOS>MOLECULE
Molport-020-293-022 MCULE-4916102994 PubChem-110265489
 30 33 0 0 0
SMALL
GASTEIGER

@<TRIPOS>ATOM
      1 C           9.5053   41.0735    5.4650 C.3     1  UNL1        0.0721
      2 C          10.7468   40.3366    4.9311 C.3     1  UNL1        0.0178
      3 C          11.8046   40.1285    6.0133 C.3     1  UNL1        0.0087
      4 C          11.1946   39.4685    7.2562 C.3     1  UNL1        0.0563
      5 C           9.7778   39.9809    7.5592 C.3     1  UNL1        0.0780
      6 N           9.5467   41.2734    6.9180 N.3     1  UNL1       -0.2720
      7 C          12.0922   39.6368    8.4407 C.ar    1  UNL1        0.0614
      8 C          14.2517   40.1928    9.2815 C.ar    1  UNL1        0.1328
      9 C          13.8116   39.9643   10.5923 C.ar    1  UNL1        0.0344
     10 C          12.4937   39.5676   10.8185 C.ar    1  UNL1        0.0041
     11 C          11.6251   39.4012    9.7407 C.ar    1  UNL1        0.0149
     12 N          13.3826   40.0230    8.2476 N.ar    1  UNL1       -0.2348
     13 N          15.5963   40.6025    8.9939 N.pl3   1  UNL1       -0.2834
     14 H          16.3070   39.9664    9.2381 H       1  UNL1        0.1550
     15 C          16.0246   41.8314    8.3918 C.ar    1  UNL1        0.1332
     16 C          15.2556   42.3862    7.3650 C.ar    1  UNL1        0.0345
     17 C          15.6623   43.5823    6.7713 C.ar    1  UNL1        0.0045
     18 C          16.8291   44.2124    7.2057 C.ar    1  UNL1        0.0208
     19 C          17.5739   43.6310    8.2335 C.ar    1  UNL1        0.1003
     20 N          17.1604   42.4650    8.7991 N.ar    1  UNL1       -0.2290
     21 C           8.2244   41.7129    7.3263 C.3     1  UNL1        0.0768
     22 C           8.3466   42.8731    8.2988 C.3     1  UNL1        0.0437
     23 C           8.4505   41.4455   12.3474 C.ar    1  UNL1        0.1387
     24 C           7.2462   41.4619   11.6354 C.ar    1  UNL1        0.0366
     25 C           7.2125   41.9222   10.3156 C.ar    1  UNL1       -0.0011
     26 C           8.3864   42.3657    9.6977 C.ar    1  UNL1       -0.0206
     27 C           9.5926   42.3574   10.4056 C.ar    1  UNL1       -0.0011
     28 C           9.6260   41.8974   11.7250 C.ar    1  UNL1        0.0366
     29 C           9.5880   41.0736   14.5121 C.3     1  UNL1        0.2525
     30 O           8.4510   40.9791   13.6648 O.3     1  UNL1       -0.4714
@<TRIPOS>BOND
     1    29    30    1
     2    23    30    1
     3    24    25   ar
     4    26    27   ar
     5    28    23   ar
     6    22    26    1
     7    22    21    1
     8    21     6    1
     9     1     6    1
    10     1     2    1
    11     2     3    1
    12     3     4    1
    13     4     5    1
    14     4     7    1
    15     5     6    1
    16     8    12   ar
    17     8    13    1
    18     9    10   ar
    19    11     7   ar
    20    15    20   ar
    21    16    17   ar
    22    18    19   ar
    23    13    15    1
    24    23    24   ar
    25    25    26   ar
    26    27    28   ar
    27     7    12   ar
    28     8     9   ar
    29    10    11   ar
    30    15    16   ar
    31    17    18   ar
    32    19    20   ar
    33    13    14    1
@<TRIPOS>MOLECULE
Molport-020-293-022 MCULE-4916102994 PubChem-110265489
 30 33 0 0 0
SMALL
GASTEIGER

@<TRIPOS>ATOM
      1 C          10.7585   39.0277    8.8864 C.3     1  UNL1        0.0721
      2 C          11.3330   37.7385    9.5004 C.3     1  UNL1        0.0178
      3 C          12.8361   37.8392    9.7532 C.3     1  UNL1        0.0087
      4 C          13.1728   39.0987   10.5611 C.3     1  UNL1        0.0563
      5 C          12.3099   40.3047   10.1577 C.3     1  UNL1        0.0780
      6 N          11.7438   40.1132    8.8243 N.3     1  UNL1       -0.2720
      7 C          14.6296   39.4212   10.4583 C.ar    1  UNL1        0.0614
      8 C          16.3541   40.6842    9.4043 C.ar    1  UNL1        0.1328
      9 C          17.3165   40.0642   10.2126 C.ar    1  UNL1        0.0344
     10 C          16.9195   39.1125   11.1518 C.ar    1  UNL1        0.0041
     11 C          15.5703   38.7853   11.2795 C.ar    1  UNL1        0.0149
     12 N          15.0435   40.3460    9.5500 N.ar    1  UNL1       -0.2348
     13 N          16.7087   41.6695    8.4235 N.pl3   1  UNL1       -0.2834
     14 H          17.6715   41.8331    8.2991 H       1  UNL1        0.1550
     15 C          15.8227   42.4434    7.6036 C.ar    1  UNL1        0.1332
     16 C          14.5623   41.9255    7.2930 C.ar    1  UNL1        0.0345
     17 C          13.6910   42.6698    6.4958 C.ar    1  UNL1        0.0045
     18 C          14.0836   43.9202    6.0168 C.ar    1  UNL1        0.0208
     19 C          15.3499   44.4077    6.3458 C.ar    1  UNL1        0.1003
     20 N          16.1841   43.6669    7.1241 N.ar    1  UNL1       -0.2290
     21 C          11.0198   41.3288    8.4983 C.3     1  UNL1        0.0768
     22 C          10.8117   42.1553    9.7555 C.3     1  UNL1        0.0437
     23 C           6.8411   41.5223   11.2636 C.ar    1  UNL1        0.1387
     24 C           7.9484   41.3727   12.1058 C.ar    1  UNL1        0.0366
     25 C           9.2411   41.5833   11.6167 C.ar    1  UNL1       -0.0011
     26 C           9.4341   41.9494   10.2805 C.ar    1  UNL1       -0.0206
     27 C           8.3321   42.0950    9.4317 C.ar    1  UNL1       -0.0011
     28 C           7.0399   41.8843    9.9208 C.ar    1  UNL1        0.0366
     29 C           4.3996   41.2604   10.9667 C.3     1  UNL1        0.2525
     30 O           5.5620   41.3051   11.7829 O.3     1  UNL1       -0.4714
@<TRIPOS>BOND
     1    29    30    1
     2    23    30    1
     3    24    25   ar
     4    26    27   ar
     5    28    23   ar
     6    22    26    1
     7    22    21    1
     8    21     6    1
     9     1     6    1
    10     1     2    1
    11     2     3    1
    12     3     4    1
    13     4     5    1
    14     4     7    1
    15     5     6    1
    16     8    12   ar
    17     8    13    1
    18     9    10   ar
    19    11     7   ar
    20    15    20   ar
    21    16    17   ar
    22    18    19   ar
    23    13    15    1
    24    23    24   ar
    25    25    26   ar
    26    27    28   ar
    27     7    12   ar
    28     8     9   ar
    29    10    11   ar
    30    15    16   ar
    31    17    18   ar
    32    19    20   ar
    33    13    14    1
@<TRIPOS>MOLECULE
Molport-020-293-022 MCULE-4916102994 PubChem-110265489
 30 33 0 0 0
SMALL
GASTEIGER

@<TRIPOS>ATOM
      1 C          10.3484   41.8300    7.8424 C.3     1  UNL1        0.0721
      2 C          10.8103   41.7488    6.3763 C.3     1  UNL1        0.0178
      3 C          12.2598   42.1982    6.2017 C.3     1  UNL1        0.0087
      4 C          13.1851   41.4532    7.1719 C.3     1  UNL1        0.0563
      5 C          12.5385   41.2307    8.5481 C.3     1  UNL1        0.0780
      6 N          11.4400   42.1702    8.7619 N.3     1  UNL1       -0.2720
      7 C          14.4969   42.1597    7.3017 C.ar    1  UNL1        0.0614
      8 C          16.6939   42.1964    8.2246 C.ar    1  UNL1        0.1328
      9 C          16.9520   43.4182    7.5883 C.ar    1  UNL1        0.0344
     10 C          15.9633   44.0089    6.8015 C.ar    1  UNL1        0.0041
     11 C          14.7273   43.3809    6.6541 C.ar    1  UNL1        0.0149
     12 N          15.4785   41.6049    8.0635 N.ar    1  UNL1       -0.2348
     13 N          17.6758   41.5463    9.0441 N.pl3   1  UNL1       -0.2834
     14 H          18.4921   42.0617    9.2372 H       1  UNL1        0.1550
     15 C          17.6056   40.2325    9.6144 C.ar    1  UNL1        0.1332
     16 C          16.4507   39.8556   10.3056 C.ar    1  UNL1        0.0345
     17 C          16.3706   38.5792   10.8650 C.ar    1  UNL1        0.0045
     18 C          17.4399   37.6928   10.7305 C.ar    1  UNL1        0.0208
     19 C          18.5787   38.1016   10.0339 C.ar    1  UNL1        0.1003
     20 N          18.6371   39.3497    9.4962 N.ar    1  UNL1       -0.2290
     21 C          10.9499   41.9418   10.1094 C.3     1  UNL1        0.0768
     22 C          10.1749   40.6365   10.1595 C.3     1  UNL1        0.0437
     23 C          12.8659   37.2955   10.3498 C.ar    1  UNL1        0.1387
     24 C          11.7849   37.2815    9.4616 C.ar    1  UNL1        0.0366
     25 C          10.9111   38.3710    9.3957 C.ar    1  UNL1       -0.0011
     26 C          11.1162   39.4848   10.2166 C.ar    1  UNL1       -0.0206
     27 C          12.1915   39.5029   11.1108 C.ar    1  UNL1       -0.0011
     28 C          13.0649   38.4137   11.1766 C.ar    1  UNL1        0.0366
     29 C          13.4092   34.9542    9.7656 C.3     1  UNL1        0.2525
     30 O          13.7215   36.1912   10.3914 O.3     1  UNL1       -0.4714
@<TRIPOS>BOND
     1    29    30    1
     2    23    30    1
     3    24    25   ar
     4    26    27   ar
     5    28    23   ar
     6    22    26    1
     7    22    21    1
     8    21     6    1
     9     1     6    1
    10     1     2    1
    11     2     3    1
    12     3     4    1
    13     4     5    1
    14     4     7    1
    15     5     6    1
    16     8    12   ar
    17     8    13    1
    18     9    10   ar
    19    11     7   ar
    20    15    20   ar
    21    16    17   ar
    22    18    19   ar
    23    13    15    1
    24    23    24   ar
    25    25    26   ar
    26    27    28   ar
    27     7    12   ar
    28     8     9   ar
    29    10    11   ar
    30    15    16   ar
    31    17    18   ar
    32    19    20   ar
    33    13    14    1
@<TRIPOS>MOLECULE
Molport-020-293-022 MCULE-4916102994 PubChem-110265489
 30 33 0 0 0
SMALL
GASTEIGER

@<TRIPOS>ATOM
      1 C          10.1835   40.9594    7.8660 C.3     1  UNL1        0.0721
      2 C           9.6201   40.7482    9.2828 C.3     1  UNL1        0.0178
      3 C          10.5111   39.8411   10.1293 C.3     1  UNL1        0.0087
      4 C          11.9627   40.3364   10.1209 C.3     1  UNL1        0.0563
      5 C          12.3895   40.8848    8.7502 C.3     1  UNL1        0.0780
      6 N          11.5180   40.3742    7.6943 N.3     1  UNL1       -0.2720
      7 C          12.8930   39.2604   10.5831 C.ar    1  UNL1        0.0614
      8 C          13.7162   37.0406   10.3096 C.ar    1  UNL1        0.1328
      9 C          14.5901   37.2204   11.3904 C.ar    1  UNL1        0.0344
     10 C          14.6072   38.4391   12.0686 C.ar    1  UNL1        0.0041
     11 C          13.7562   39.4679   11.6674 C.ar    1  UNL1        0.0149
     12 N          12.8961   38.0619    9.9388 N.ar    1  UNL1       -0.2348
     13 N          13.6590   35.8078    9.5779 N.pl3   1  UNL1       -0.2834
     14 H          12.8052   35.3190    9.6145 H       1  UNL1        0.1550
     15 C          14.7019   35.2054    8.7996 C.ar    1  UNL1        0.1332
     16 C          15.4333   36.0031    7.9153 C.ar    1  UNL1        0.0345
     17 C          16.4511   35.4280    7.1523 C.ar    1  UNL1        0.0045
     18 C          16.7292   34.0664    7.2778 C.ar    1  UNL1        0.0208
     19 C          15.9791   33.2984    8.1705 C.ar    1  UNL1        0.1003
     20 N          14.9916   33.8779    8.9049 N.ar    1  UNL1       -0.2290
     21 C          12.0453   40.8750    6.4375 C.3     1  UNL1        0.0768
     22 C          12.0731   42.3934    6.4611 C.3     1  UNL1        0.0437
     23 C          16.1251   43.8152    6.4747 C.ar    1  UNL1        0.1387
     24 C          15.7738   42.6772    7.2090 C.ar    1  UNL1        0.0366
     25 C          14.4557   42.2110    7.2012 C.ar    1  UNL1       -0.0011
     26 C          13.4801   42.8793    6.4542 C.ar    1  UNL1       -0.0206
     27 C          13.8232   44.0208    5.7225 C.ar    1  UNL1       -0.0011
     28 C          15.1409   44.4868    5.7305 C.ar    1  UNL1        0.0366
     29 C          18.3081   44.0402    7.6156 C.3     1  UNL1        0.2525
     30 O          17.4511   44.2556    6.5027 O.3     1  UNL1       -0.4714
@<TRIPOS>BOND
     1    29    30    1
     2    23    30    1
     3    24    25   ar
     4    26    27   ar
     5    28    23   ar
     6    22    26    1
     7    22    21    1
     8    21     6    1
     9     1     6    1
    10     1     2    1
    11     2     3    1
    12     3     4    1
    13     4     5    1
    14     4     7    1
    15     5     6    1
    16     8    12   ar
    17     8    13    1
    18     9    10   ar
    19    11     7   ar
    20    15    20   ar
    21    16    17   ar
    22    18    19   ar
    23    13    15    1
    24    23    24   ar
    25    25    26   ar
    26    27    28   ar
    27     7    12   ar
    28     8     9   ar
    29    10    11   ar
    30    15    16   ar
    31    17    18   ar
    32    19    20   ar
    33    13    14    1
@<TRIPOS>MOLECULE
Molport-020-293-022 MCULE-4916102994 PubChem-110265489
 30 33 0 0 0
SMALL
GASTEIGER

@<TRIPOS>ATOM
      1 C          11.4790   38.6106    9.9684 C.3     1  UNL1        0.0721
      2 C          12.0626   37.2082   10.2174 C.3     1  UNL1        0.0178
      3 C          13.5902   37.2088   10.2104 C.3     1  UNL1        0.0087
      4 C          14.1421   38.2743   11.1656 C.3     1  UNL1        0.0563
      5 C          13.3052   39.5632   11.1564 C.3     1  UNL1        0.0780
      6 N          12.5092   39.6548    9.9344 N.3     1  UNL1       -0.2720
      7 C          15.5784   38.5634   10.8649 C.ar    1  UNL1        0.0614
      8 C          17.2024   40.0884   10.0182 C.ar    1  UNL1        0.1328
      9 C          18.2223   39.1632   10.2791 C.ar    1  UNL1        0.0344
     10 C          17.9050   37.9262   10.8399 C.ar    1  UNL1        0.0041
     11 C          16.5777   37.6192   11.1362 C.ar    1  UNL1        0.0149
     12 N          15.9149   39.7628   10.3175 N.ar    1  UNL1       -0.2348
     13 N          17.4743   41.3744    9.4431 N.pl3   1  UNL1       -0.2834
     14 H          18.3109   41.8097    9.7258 H       1  UNL1        0.1550
     15 C          16.6682   42.0989    8.5042 C.ar    1  UNL1        0.1332
     16 C          17.1413   43.3145    8.0024 C.ar    1  UNL1        0.0345
     17 C          16.3657   44.0288    7.0876 C.ar    1  UNL1        0.0045
     18 C          15.1287   43.5257    6.6829 C.ar    1  UNL1        0.0208
     19 C          14.6861   42.3083    7.2039 C.ar    1  UNL1        0.1003
     20 N          15.4570   41.6276    8.0942 N.ar    1  UNL1       -0.2290
     21 C          11.8226   40.9335    9.9767 C.3     1  UNL1        0.0768
     22 C          11.3510   41.3093    8.5828 C.3     1  UNL1        0.0437
     23 C           7.0750   41.0203    8.3139 C.ar    1  UNL1        0.1387
     24 C           7.8818   40.5361    7.2783 C.ar    1  UNL1        0.0366
     25 C           9.2742   40.6256    7.3674 C.ar    1  UNL1       -0.0011
     26 C           9.8692   41.1974    8.4968 C.ar    1  UNL1       -0.0206
     27 C           9.0685   41.6886    9.5330 C.ar    1  UNL1       -0.0011
     28 C           7.6765   41.5991    9.4438 C.ar    1  UNL1        0.0366
     29 C           4.7954   41.3146    9.2275 C.3     1  UNL1        0.2525
     30 O           5.6865   40.9157    8.1950 O.3     1  UNL1       -0.4714
@<TRIPOS>BOND
     1    29    30    1
     2    23    30    1
     3    24    25   ar
     4    26    27   ar
     5    28    23   ar
     6    22    26    1
     7    22    21    1
     8    21     6    1
     9     1     6    1
    10     1     2    1
    11     2     3    1
    12     3     4    1
    13     4     5    1
    14     4     7    1
    15     5     6    1
    16     8    12   ar
    17     8    13    1
    18     9    10   ar
    19    11     7   ar
    20    15    20   ar
    21    16    17   ar
    22    18    19   ar
    23    13    15    1
    24    23    24   ar
    25    25    26   ar
    26    27    28   ar
    27     7    12   ar
    28     8     9   ar
    29    10    11   ar
    30    15    16   ar
    31    17    18   ar
    32    19    20   ar
    33    13    14    1
@<TRIPOS>MOLECULE
Molport-020-293-022 MCULE-4916102994 PubChem-110265489
 30 33 0 0 0
SMALL
GASTEIGER

@<TRIPOS>ATOM
      1 C          11.5266   38.3587   10.0451 C.3     1  UNL1        0.0721
      2 C          12.1515   37.0802   10.6319 C.3     1  UNL1        0.0178
      3 C          13.6782   37.1313   10.6325 C.3     1  UNL1        0.0087
      4 C          14.1832   38.4159   11.3013 C.3     1  UNL1        0.0563
      5 C          13.3057   39.6342   10.9734 C.3     1  UNL1        0.0780
      6 N          12.5233   39.3977    9.7622 N.3     1  UNL1       -0.2720
      7 C          15.6133   38.6719   10.9462 C.ar    1  UNL1        0.0614
      8 C          17.2200   40.1033    9.9218 C.ar    1  UNL1        0.1328
      9 C          18.2452   39.2072   10.2536 C.ar    1  UNL1        0.0344
     10 C          17.9394   38.0322   10.9401 C.ar    1  UNL1        0.0041
     11 C          16.6182   37.7578   11.2906 C.ar    1  UNL1        0.0149
     12 N          15.9386   39.8107   10.2763 N.ar    1  UNL1       -0.2348
     13 N          17.4802   41.3257    9.2171 N.pl3   1  UNL1       -0.2834
     14 H          18.3864   41.6985    9.3118 H       1  UNL1        0.1550
     15 C          16.5727   42.0670    8.3906 C.ar    1  UNL1        0.1332
     16 C          15.3242   41.5145    8.0915 C.ar    1  UNL1        0.0345
     17 C          14.4322   42.2269    7.2882 C.ar    1  UNL1        0.0045
     18 C          14.7925   43.4802    6.7916 C.ar    1  UNL1        0.0208
     19 C          16.0475   44.0027    7.1095 C.ar    1  UNL1        0.1003
     20 N          16.9023   43.2927    7.8941 N.ar    1  UNL1       -0.2290
     21 C          11.7957   40.6238    9.4876 C.3     1  UNL1        0.0768
     22 C          10.3297   40.3079    9.2470 C.3     1  UNL1        0.0437
     23 C           9.6010   39.9330    5.0316 C.ar    1  UNL1        0.1387
     24 C           9.1407   38.9527    5.9175 C.ar    1  UNL1        0.0366
     25 C           9.3735   39.0765    7.2906 C.ar    1  UNL1       -0.0011
     26 C          10.0659   40.1859    7.7870 C.ar    1  UNL1       -0.0206
     27 C          10.5338   41.1666    6.9065 C.ar    1  UNL1       -0.0011
     28 C          10.3011   41.0426    5.5339 C.ar    1  UNL1        0.0366
     29 C           9.3882   38.5176    3.0145 C.3     1  UNL1        0.2525
     30 O           9.3519   39.7804    3.6650 O.3     1  UNL1       -0.4714
@<TRIPOS>BOND
     1    29    30    1
     2    23    30    1
     3    24    25   ar
     4    26    27   ar
     5    28    23   ar
     6    22    26    1
     7    22    21    1
     8    21     6    1
     9     1     6    1
    10     1     2    1
    11     2     3    1
    12     3     4    1
    13     4     5    1
    14     4     7    1
    15     5     6    1
    16     8    12   ar
    17     8    13    1
    18     9    10   ar
    19    11     7   ar
    20    15    20   ar
    21    16    17   ar
    22    18    19   ar
    23    13    15    1
    24    23    24   ar
    25    25    26   ar
    26    27    28   ar
    27     7    12   ar
    28     8     9   ar
    29    10    11   ar
    30    15    16   ar
    31    17    18   ar
    32    19    20   ar
    33    13    14    1
