@<TRIPOS>MOLECULE
MolPort-002-291-296 2877491 CSSS00160334066 MCULE-4069933843 PubChem-2229791 ZINC000002877491 ZINC02877491
 22 23 0 0 0
SMALL
GASTEIGER

@<TRIPOS>ATOM
      1 C          13.8996   42.6376    6.2499 C.3     1  UNL1        0.0609
      2 C          14.9879   42.2948    7.2221 C.ar    1  UNL1       -0.0125
      3 C          16.2120   43.0049    7.2486 C.ar    1  UNL1        0.0679
      4 C          17.1950   42.6296    8.1784 C.ar    1  UNL1        0.0044
      5 C          16.9710   41.5815    9.0730 C.ar    1  UNL1        0.0113
      6 C          15.7576   40.8945    9.0513 C.ar    1  UNL1        0.0574
      7 C          14.7708   41.2506    8.1315 C.ar    1  UNL1        0.0074
      8 CL         15.4733   39.5835   10.1750 Cl      1  UNL1       -0.0823
      9 C          16.4853   44.1527    6.3069 C.3     1  UNL1        0.4183
     10 F          15.5753   45.1800    6.4954 F       1  UNL1       -0.1659
     11 F          16.3881   43.7180    4.9972 F       1  UNL1       -0.1659
     12 F          17.7567   44.6469    6.5296 F       1  UNL1       -0.1659
     13 C          10.4155   41.1877    7.2525 C.ar    1  UNL1        0.1653
     14 C          11.9966   42.6189    7.9596 C.ar    1  UNL1        0.1034
     15 C          12.5656   42.2059    6.7611 C.ar    1  UNL1        0.0334
     16 N          10.7913   42.0480    8.2253 N.ar    1  UNL1       -0.2227
     17 S          11.5513   41.0870    6.0196 S.2     1  UNL1       -0.0554
     18 C           7.1358   39.3801    6.2807 C.3     1  UNL1        0.0950
     19 C           8.3829   40.1721    6.1220 C.2     1  UNL1        0.2280
     20 O           8.7064   40.5961    4.9811 O.2     1  UNL1       -0.2747
     21 N           9.1956   40.4400    7.2688 N.am    1  UNL1       -0.2641
     22 H           8.8924   40.0829    8.1347 H       1  UNL1        0.1567
@<TRIPOS>BOND
     1    18    19    1
     2    19    21   am
     3    13    17   ar
     4    14    16   ar
     5    15    17   ar
     6     1    15    1
     7     1     2    1
     8     3     4   ar
     9     5     6   ar
    10     6     8    1
    11     7     2   ar
    12     9     3    1
    13     9    10    1
    14     9    11    1
    15     9    12    1
    16    21    13    1
    17    19    20    2
    18    13    16   ar
    19    14    15   ar
    20     2     3   ar
    21     4     5   ar
    22     6     7   ar
    23    21    22    1
@<TRIPOS>MOLECULE
MolPort-002-291-296 2877491 CSSS00160334066 MCULE-4069933843 PubChem-2229791 ZINC000002877491 ZINC02877491
 22 23 0 0 0
SMALL
GASTEIGER

@<TRIPOS>ATOM
      1 C          10.8613   39.7191    7.7433 C.3     1  UNL1        0.0609
      2 C           9.6299   40.4090    8.2481 C.ar    1  UNL1       -0.0125
      3 C           8.3555   40.1628    7.6838 C.ar    1  UNL1        0.0679
      4 C           7.2418   40.8474    8.1964 C.ar    1  UNL1        0.0044
      5 C           7.3802   41.7490    9.2533 C.ar    1  UNL1        0.0113
      6 C           8.6363   41.9771    9.8144 C.ar    1  UNL1        0.0574
      7 C           9.7549   41.3092    9.3151 C.ar    1  UNL1        0.0074
      8 CL          8.8109   43.1034   11.1422 Cl      1  UNL1       -0.0823
      9 C           8.1641   39.1848    6.5498 C.3     1  UNL1        0.4183
     10 F           6.8242   39.0564    6.2227 F       1  UNL1       -0.1659
     11 F           8.6452   37.9409    6.9171 F       1  UNL1       -0.1659
     12 F           8.8479   39.6259    5.4324 F       1  UNL1       -0.1659
     13 C          13.8363   42.1082    6.9137 C.ar    1  UNL1        0.1653
     14 C          11.7948   41.5191    6.1833 C.ar    1  UNL1        0.1034
     15 C          11.8911   40.7072    7.3068 C.ar    1  UNL1        0.0334
     16 N          12.8856   42.3033    5.9726 N.ar    1  UNL1       -0.2227
     17 S          13.3799   40.9580    8.0490 S.2     1  UNL1       -0.0554
     18 C          16.8611   44.3841    6.1145 C.3     1  UNL1        0.0950
     19 C          15.5283   43.7446    5.9649 C.2     1  UNL1        0.2280
     20 O          14.8023   44.0486    4.9819 O.2     1  UNL1       -0.2747
     21 N          15.0921   42.7935    6.9409 N.am    1  UNL1       -0.2641
     22 H          15.7022   42.5957    7.6878 H       1  UNL1        0.1567
@<TRIPOS>BOND
     1    18    19    1
     2    19    21   am
     3    13    17   ar
     4    14    16   ar
     5    15    17   ar
     6     1    15    1
     7     1     2    1
     8     3     4   ar
     9     5     6   ar
    10     6     8    1
    11     7     2   ar
    12     9     3    1
    13     9    10    1
    14     9    11    1
    15     9    12    1
    16    21    13    1
    17    19    20    2
    18    13    16   ar
    19    14    15   ar
    20     2     3   ar
    21     4     5   ar
    22     6     7   ar
    23    21    22    1
@<TRIPOS>MOLECULE
MolPort-002-291-296 2877491 CSSS00160334066 MCULE-4069933843 PubChem-2229791 ZINC000002877491 ZINC02877491
 22 23 0 0 0
SMALL
GASTEIGER

@<TRIPOS>ATOM
      1 C          13.2086   42.4944    6.8498 C.3     1  UNL1        0.0609
      2 C          14.6443   42.5178    7.2801 C.ar    1  UNL1       -0.0125
      3 C          15.5614   43.4615    6.7589 C.ar    1  UNL1        0.0679
      4 C          16.8951   43.4259    7.1966 C.ar    1  UNL1        0.0044
      5 C          17.3142   42.4851    8.1391 C.ar    1  UNL1        0.0113
      6 C          16.4028   41.5666    8.6594 C.ar    1  UNL1        0.0574
      7 C          15.0745   41.5842    8.2329 C.ar    1  UNL1        0.0074
      8 CL         16.9253   40.3897    9.8443 Cl      1  UNL1       -0.0823
      9 C          15.1425   44.5027    5.7492 C.3     1  UNL1        0.4183
     10 F          15.9589   45.6197    5.8167 F       1  UNL1       -0.1659
     11 F          13.8400   44.8981    5.9962 F       1  UNL1       -0.1659
     12 F          15.2245   43.9760    4.4739 F       1  UNL1       -0.1659
     13 C          11.6607   39.1797    8.2151 C.ar    1  UNL1        0.1653
     14 C          11.6973   40.4831    6.3853 C.ar    1  UNL1        0.1034
     15 C          12.5610   41.1978    7.2062 C.ar    1  UNL1        0.0334
     16 N          11.2011   39.3526    6.9555 N.ar    1  UNL1       -0.2227
     17 S          12.6983   40.4128    8.6878 S.2     1  UNL1       -0.0554
     18 C          11.7145   36.0264   10.4561 C.3     1  UNL1        0.0950
     19 C          12.2229   37.1240    9.5930 C.2     1  UNL1        0.2280
     20 O          13.4556   37.1974    9.3461 O.2     1  UNL1       -0.2747
     21 N          11.3026   38.0795    9.0568 N.am    1  UNL1       -0.2641
     22 H          10.3508   37.9717    9.2843 H       1  UNL1        0.1567
@<TRIPOS>BOND
     1    18    19    1
     2    19    21   am
     3    13    17   ar
     4    14    16   ar
     5    15    17   ar
     6     1    15    1
     7     1     2    1
     8     3     4   ar
     9     5     6   ar
    10     6     8    1
    11     7     2   ar
    12     9     3    1
    13     9    10    1
    14     9    11    1
    15     9    12    1
    16    21    13    1
    17    19    20    2
    18    13    16   ar
    19    14    15   ar
    20     2     3   ar
    21     4     5   ar
    22     6     7   ar
    23    21    22    1
@<TRIPOS>MOLECULE
MolPort-002-291-296 2877491 CSSS00160334066 MCULE-4069933843 PubChem-2229791 ZINC000002877491 ZINC02877491
 22 23 0 0 0
SMALL
GASTEIGER

@<TRIPOS>ATOM
      1 C          13.1824   41.9907    6.5721 C.3     1  UNL1        0.0609
      2 C          14.5233   42.1268    7.2283 C.ar    1  UNL1       -0.0125
      3 C          15.4140   43.1733    6.8897 C.ar    1  UNL1        0.0679
      4 C          16.6593   43.2410    7.5351 C.ar    1  UNL1        0.0044
      5 C          17.0149   42.3015    8.5045 C.ar    1  UNL1        0.0113
      6 C          16.1275   41.2806    8.8439 C.ar    1  UNL1        0.0574
      7 C          14.8876   41.1950    8.2099 C.ar    1  UNL1        0.0074
      8 CL         16.5698   40.1048   10.0621 Cl      1  UNL1       -0.0823
      9 C          15.0592   44.2157    5.8569 C.3     1  UNL1        0.4183
     10 F          15.9203   45.2987    5.9252 F       1  UNL1       -0.1659
     11 F          13.7699   44.6687    6.0717 F       1  UNL1       -0.1659
     12 F          15.1444   43.6670    4.5912 F       1  UNL1       -0.1659
     13 C          10.5150   40.8176    9.1712 C.ar    1  UNL1        0.1653
     14 C          11.6927   40.0844    7.4038 C.ar    1  UNL1        0.1034
     15 C          12.1879   41.3789    7.5016 C.ar    1  UNL1        0.0334
     16 N          10.7601   39.7765    8.3444 N.ar    1  UNL1       -0.2227
     17 S          11.4334   42.1684    8.7814 S.2     1  UNL1       -0.0554
     18 C           7.6709   41.6187   11.6687 C.3     1  UNL1        0.0950
     19 C           8.5843   41.7801   10.5078 C.2     1  UNL1        0.2280
     20 O           8.4717   42.7924    9.7672 O.2     1  UNL1       -0.2747
     21 N           9.5770   40.7821   10.2511 N.am    1  UNL1       -0.2641
     22 H           9.6177   40.0127   10.8640 H       1  UNL1        0.1567
@<TRIPOS>BOND
     1    18    19    1
     2    19    21   am
     3    13    17   ar
     4    14    16   ar
     5    15    17   ar
     6     1    15    1
     7     1     2    1
     8     3     4   ar
     9     5     6   ar
    10     6     8    1
    11     7     2   ar
    12     9     3    1
    13     9    10    1
    14     9    11    1
    15     9    12    1
    16    21    13    1
    17    19    20    2
    18    13    16   ar
    19    14    15   ar
    20     2     3   ar
    21     4     5   ar
    22     6     7   ar
    23    21    22    1
@<TRIPOS>MOLECULE
MolPort-002-291-296 2877491 CSSS00160334066 MCULE-4069933843 PubChem-2229791 ZINC000002877491 ZINC02877491
 22 23 0 0 0
SMALL
GASTEIGER

@<TRIPOS>ATOM
      1 C          12.1471   39.9583    8.0689 C.3     1  UNL1        0.0609
      2 C          12.8014   39.4487    9.3176 C.ar    1  UNL1       -0.0125
      3 C          12.3632   39.8482   10.6028 C.ar    1  UNL1        0.0679
      4 C          13.0235   39.3412   11.7336 C.ar    1  UNL1        0.0044
      5 C          14.0882   38.4481   11.6001 C.ar    1  UNL1        0.0113
      6 C          14.5065   38.0474   10.3316 C.ar    1  UNL1        0.0574
      7 C          13.8652   38.5442    9.1965 C.ar    1  UNL1        0.0074
      8 CL         15.8379   36.9243   10.1626 Cl      1  UNL1       -0.0823
      9 C          11.2068   40.8010   10.7874 C.3     1  UNL1        0.4183
     10 F          10.0541   40.3057   10.2003 F       1  UNL1       -0.1659
     11 F          11.5053   42.0193   10.2042 F       1  UNL1       -0.1659
     12 F          10.9667   40.9880   12.1357 F       1  UNL1       -0.1659
     13 C          14.5513   42.7475    6.7701 C.ar    1  UNL1        0.1653
     14 C          12.5591   41.8007    6.3424 C.ar    1  UNL1        0.1034
     15 C          12.9332   41.0748    7.4665 C.ar    1  UNL1        0.0334
     16 N          13.4678   42.7379    5.9615 N.ar    1  UNL1       -0.2227
     17 S          14.4429   41.6000    7.9914 S.2     1  UNL1       -0.0554
     18 C          18.0610   44.3733    6.8510 C.3     1  UNL1        0.0950
     19 C          16.9899   43.3721    7.0920 C.2     1  UNL1        0.2280
     20 O          17.2604   42.3150    7.7208 O.2     1  UNL1       -0.2747
     21 N          15.6685   43.6262    6.6055 N.am    1  UNL1       -0.2641
     22 H          15.5166   44.4694    6.1207 H       1  UNL1        0.1567
@<TRIPOS>BOND
     1    18    19    1
     2    19    21   am
     3    13    17   ar
     4    14    16   ar
     5    15    17   ar
     6     1    15    1
     7     1     2    1
     8     3     4   ar
     9     5     6   ar
    10     6     8    1
    11     7     2   ar
    12     9     3    1
    13     9    10    1
    14     9    11    1
    15     9    12    1
    16    21    13    1
    17    19    20    2
    18    13    16   ar
    19    14    15   ar
    20     2     3   ar
    21     4     5   ar
    22     6     7   ar
    23    21    22    1
@<TRIPOS>MOLECULE
MolPort-002-291-296 2877491 CSSS00160334066 MCULE-4069933843 PubChem-2229791 ZINC000002877491 ZINC02877491
 22 23 0 0 0
SMALL
GASTEIGER

@<TRIPOS>ATOM
      1 C           7.5041   42.4078    8.6908 C.3     1  UNL1        0.0609
      2 C           6.0793   42.3727    9.1555 C.ar    1  UNL1       -0.0125
      3 C           5.1496   43.3712    8.7788 C.ar    1  UNL1        0.0679
      4 C           3.8311   43.2858    9.2543 C.ar    1  UNL1        0.0044
      5 C           3.4338   42.2296   10.0763 C.ar    1  UNL1        0.0113
      6 C           4.3508   41.2414   10.4329 C.ar    1  UNL1        0.0574
      7 C           5.6663   41.3122    9.9734 C.ar    1  UNL1        0.0074
      8 CL          3.8533   39.9143   11.4593 Cl      1  UNL1       -0.0823
      9 C           5.5382   44.5205    7.8803 C.3     1  UNL1        0.4183
     10 F           5.9655   44.0645    6.6440 F       1  UNL1       -0.1659
     11 F           6.5671   45.2412    8.4595 F       1  UNL1       -0.1659
     12 F           4.4508   45.3521    7.6892 F       1  UNL1       -0.1659
     13 C           8.5238   39.6872    6.0822 C.ar    1  UNL1        0.1653
     14 C           6.7992   41.0001    6.6743 C.ar    1  UNL1        0.1034
     15 C           7.7425   41.4066    7.6101 C.ar    1  UNL1        0.0334
     16 N           7.2455   40.0408    5.8200 N.ar    1  UNL1       -0.2227
     17 S           9.1646   40.5375    7.3809 S.2     1  UNL1       -0.0554
     18 C          10.1948   37.5971    3.2881 C.3     1  UNL1        0.0950
     19 C           9.4130   38.6882    3.9254 C.2     1  UNL1        0.2280
     20 O           8.9051   39.5882    3.2056 O.2     1  UNL1       -0.2747
     21 N           9.2504   38.6979    5.3469 N.am    1  UNL1       -0.2641
     22 H           9.6702   37.9685    5.8579 H       1  UNL1        0.1567
@<TRIPOS>BOND
     1    18    19    1
     2    19    21   am
     3    13    17   ar
     4    14    16   ar
     5    15    17   ar
     6     1    15    1
     7     1     2    1
     8     3     4   ar
     9     5     6   ar
    10     6     8    1
    11     7     2   ar
    12     9     3    1
    13     9    10    1
    14     9    11    1
    15     9    12    1
    16    21    13    1
    17    19    20    2
    18    13    16   ar
    19    14    15   ar
    20     2     3   ar
    21     4     5   ar
    22     6     7   ar
    23    21    22    1
@<TRIPOS>MOLECULE
MolPort-002-291-296 2877491 CSSS00160334066 MCULE-4069933843 PubChem-2229791 ZINC000002877491 ZINC02877491
 22 23 0 0 0
SMALL
GASTEIGER

@<TRIPOS>ATOM
      1 C          10.2273   40.3573    8.3191 C.3     1  UNL1        0.0609
      2 C           9.1404   41.3432    8.6252 C.ar    1  UNL1       -0.0125
      3 C           8.8769   41.7726    9.9478 C.ar    1  UNL1        0.0679
      4 C           7.8391   42.6922   10.1695 C.ar    1  UNL1        0.0044
      5 C           7.0829   43.1880    9.1057 C.ar    1  UNL1        0.0113
      6 C           7.3563   42.7718    7.8031 C.ar    1  UNL1        0.0574
      7 C           8.3808   41.8552    7.5644 C.ar    1  UNL1        0.0074
      8 CL          6.4126   43.3957    6.4681 Cl      1  UNL1       -0.0823
      9 C           9.6819   41.2697   11.1218 C.3     1  UNL1        0.4183
     10 F           8.9689   41.3894   12.3033 F       1  UNL1       -0.1659
     11 F          10.8485   42.0039   11.2393 F       1  UNL1       -0.1659
     12 F           9.9991   39.9376   10.9341 F       1  UNL1       -0.1659
     13 C          13.4415   42.0989    6.9472 C.ar    1  UNL1        0.1653
     14 C          11.5414   41.1165    6.2596 C.ar    1  UNL1        0.1034
     15 C          11.3774   41.0190    7.6359 C.ar    1  UNL1        0.0334
     16 N          12.6969   41.7261    5.8822 N.ar    1  UNL1       -0.2227
     17 S          12.7132   41.6931    8.4049 S.2     1  UNL1       -0.0554
     18 C          16.3002   44.5941    6.1920 C.3     1  UNL1        0.0950
     19 C          14.9286   44.0233    6.2218 C.2     1  UNL1        0.2280
     20 O          13.9804   44.6618    5.6935 O.2     1  UNL1       -0.2747
     21 N          14.7084   42.7570    6.8506 N.am    1  UNL1       -0.2641
     22 H          15.4876   42.3041    7.2468 H       1  UNL1        0.1567
@<TRIPOS>BOND
     1    18    19    1
     2    19    21   am
     3    13    17   ar
     4    14    16   ar
     5    15    17   ar
     6     1    15    1
     7     1     2    1
     8     3     4   ar
     9     5     6   ar
    10     6     8    1
    11     7     2   ar
    12     9     3    1
    13     9    10    1
    14     9    11    1
    15     9    12    1
    16    21    13    1
    17    19    20    2
    18    13    16   ar
    19    14    15   ar
    20     2     3   ar
    21     4     5   ar
    22     6     7   ar
    23    21    22    1
@<TRIPOS>MOLECULE
MolPort-002-291-296 2877491 CSSS00160334066 MCULE-4069933843 PubChem-2229791 ZINC000002877491 ZINC02877491
 22 23 0 0 0
SMALL
GASTEIGER

@<TRIPOS>ATOM
      1 C          10.3080   41.0318    8.6030 C.3     1  UNL1        0.0609
      2 C           9.2469   40.5447    7.6628 C.ar    1  UNL1       -0.0125
      3 C           7.8770   40.8294    7.8759 C.ar    1  UNL1        0.0679
      4 C           6.9308   40.3372    6.9626 C.ar    1  UNL1        0.0044
      5 C           7.3288   39.5883    5.8536 C.ar    1  UNL1        0.0113
      6 C           8.6812   39.3227    5.6414 C.ar    1  UNL1        0.0574
      7 C           9.6352   39.7999    6.5408 C.ar    1  UNL1        0.0074
      8 CL          9.1823   38.3881    4.2494 Cl      1  UNL1       -0.0823
      9 C           7.4095   41.6475    9.0554 C.3     1  UNL1        0.4183
     10 F           7.9190   41.1474   10.2425 F       1  UNL1       -0.1659
     11 F           6.0283   41.6204    9.1271 F       1  UNL1       -0.1659
     12 F           7.8326   42.9557    8.9133 F       1  UNL1       -0.1659
     13 C          13.6179   42.3524    7.0072 C.ar    1  UNL1        0.1653
     14 C          11.4511   41.9997    6.5290 C.ar    1  UNL1        0.1034
     15 C          11.4735   41.5899    7.8565 C.ar    1  UNL1        0.0334
     16 N          12.6540   42.4292    6.0624 N.ar    1  UNL1       -0.2227
     17 S          13.0351   41.7492    8.4620 S.2     1  UNL1       -0.0554
     18 C          16.8628   44.2681    6.1301 C.3     1  UNL1        0.0950
     19 C          15.4106   44.0049    6.3025 C.2     1  UNL1        0.2280
     20 O          14.5791   44.9048    6.0115 O.2     1  UNL1       -0.2747
     21 N          14.9812   42.7325    6.7965 N.am    1  UNL1       -0.2641
     22 H          15.6765   42.0681    7.0073 H       1  UNL1        0.1567
@<TRIPOS>BOND
     1    18    19    1
     2    19    21   am
     3    13    17   ar
     4    14    16   ar
     5    15    17   ar
     6     1    15    1
     7     1     2    1
     8     3     4   ar
     9     5     6   ar
    10     6     8    1
    11     7     2   ar
    12     9     3    1
    13     9    10    1
    14     9    11    1
    15     9    12    1
    16    21    13    1
    17    19    20    2
    18    13    16   ar
    19    14    15   ar
    20     2     3   ar
    21     4     5   ar
    22     6     7   ar
    23    21    22    1
@<TRIPOS>MOLECULE
MolPort-002-291-296 2877491 CSSS00160334066 MCULE-4069933843 PubChem-2229791 ZINC000002877491 ZINC02877491
 22 23 0 0 0
SMALL
GASTEIGER

@<TRIPOS>ATOM
      1 C          12.5773   40.2723    7.7096 C.3     1  UNL1        0.0609
      2 C          13.7334   41.2204    7.6018 C.ar    1  UNL1       -0.0125
      3 C          14.8622   41.1159    8.4493 C.ar    1  UNL1        0.0679
      4 C          15.9091   42.0402    8.3034 C.ar    1  UNL1        0.0044
      5 C          15.8495   43.0416    7.3325 C.ar    1  UNL1        0.0113
      6 C          14.7409   43.1312    6.4912 C.ar    1  UNL1        0.0574
      7 C          13.6892   42.2241    6.6246 C.ar    1  UNL1        0.0074
      8 CL         14.6666   44.3829    5.2706 Cl      1  UNL1       -0.0823
      9 C          14.9691   40.0382    9.5011 C.3     1  UNL1        0.4183
     10 F          16.2039   40.0737   10.1278 F       1  UNL1       -0.1659
     11 F          14.8119   38.7946    8.9159 F       1  UNL1       -0.1659
     12 F          13.9869   40.2193   10.4566 F       1  UNL1       -0.1659
     13 C           9.3351   41.9041    6.2702 C.ar    1  UNL1        0.1653
     14 C          11.1289   40.7040    5.6454 C.ar    1  UNL1        0.1034
     15 C          11.3739   40.8092    7.0091 C.ar    1  UNL1        0.0334
     16 N           9.9838   41.3155    5.2404 N.ar    1  UNL1       -0.2227
     17 S          10.1426   41.7018    7.7287 S.2     1  UNL1       -0.0554
     18 C           6.1259   43.9583    6.9406 C.3     1  UNL1        0.0950
     19 C           7.3960   43.2388    7.2183 C.2     1  UNL1        0.2280
     20 O           7.8289   43.1799    8.3995 O.2     1  UNL1       -0.2747
     21 N           8.1059   42.6245    6.1385 N.am    1  UNL1       -0.2641
     22 H           7.7193   42.7035    5.2365 H       1  UNL1        0.1567
@<TRIPOS>BOND
     1    18    19    1
     2    19    21   am
     3    13    17   ar
     4    14    16   ar
     5    15    17   ar
     6     1    15    1
     7     1     2    1
     8     3     4   ar
     9     5     6   ar
    10     6     8    1
    11     7     2   ar
    12     9     3    1
    13     9    10    1
    14     9    11    1
    15     9    12    1
    16    21    13    1
    17    19    20    2
    18    13    16   ar
    19    14    15   ar
    20     2     3   ar
    21     4     5   ar
    22     6     7   ar
    23    21    22    1
@<TRIPOS>MOLECULE
MolPort-002-291-296 2877491 CSSS00160334066 MCULE-4069933843 PubChem-2229791 ZINC000002877491 ZINC02877491
 22 23 0 0 0
SMALL
GASTEIGER

@<TRIPOS>ATOM
      1 C          10.9363   39.9848    7.6989 C.3     1  UNL1        0.0609
      2 C           9.8707   40.9485    8.1265 C.ar    1  UNL1       -0.0125
      3 C           9.6332   41.2366    9.4918 C.ar    1  UNL1        0.0679
      4 C           8.6144   42.1427    9.8276 C.ar    1  UNL1        0.0044
      5 C           7.8518   42.7619    8.8356 C.ar    1  UNL1        0.0113
      6 C           8.0995   42.4846    7.4916 C.ar    1  UNL1        0.0574
      7 C           9.1049   41.5835    7.1392 C.ar    1  UNL1        0.0074
      8 CL          7.1477   43.2633    6.2467 Cl      1  UNL1       -0.0823
      9 C          10.4462   40.5977   10.5918 C.3     1  UNL1        0.4183
     10 F          11.6617   41.2424   10.7522 F       1  UNL1       -0.1659
     11 F          10.6923   39.2718   10.2833 F       1  UNL1       -0.1659
     12 F           9.7524   40.6666   11.7853 F       1  UNL1       -0.1659
     13 C          14.2144   42.0536    7.2292 C.ar    1  UNL1        0.1653
     14 C          13.3666   40.3427    8.4134 C.ar    1  UNL1        0.1034
     15 C          12.2679   40.6543    7.6219 C.ar    1  UNL1        0.0334
     16 N          14.4534   41.1274    8.1846 N.ar    1  UNL1       -0.2227
     17 S          12.6518   41.9520    6.6225 S.2     1  UNL1       -0.0554
     18 C          17.4196   44.1566    6.7078 C.3     1  UNL1        0.0950
     19 C          16.5249   43.1032    7.2534 C.2     1  UNL1        0.2280
     20 O          16.9672   42.3017    8.1182 O.2     1  UNL1       -0.2747
     21 N          15.1750   43.0172    6.7866 N.am    1  UNL1       -0.2641
     22 H          14.8853   43.6706    6.1096 H       1  UNL1        0.1567
@<TRIPOS>BOND
     1    18    19    1
     2    19    21   am
     3    13    17   ar
     4    14    16   ar
     5    15    17   ar
     6     1    15    1
     7     1     2    1
     8     3     4   ar
     9     5     6   ar
    10     6     8    1
    11     7     2   ar
    12     9     3    1
    13     9    10    1
    14     9    11    1
    15     9    12    1
    16    21    13    1
    17    19    20    2
    18    13    16   ar
    19    14    15   ar
    20     2     3   ar
    21     4     5   ar
    22     6     7   ar
    23    21    22    1
