@<TRIPOS>MOLECULE
MolPort-007-723-742 6818444 CHEMBL1311289 ChemDiv-E157-8442 MCULE-4528937544 PubChem-22518215 ZINC000006818444 ZINC06818444
 25 26 0 0 0
SMALL
GASTEIGER

@<TRIPOS>ATOM
      1 C          13.4929   38.5368    9.8747 C.ar    1  UNL1        0.2593
      2 C          11.3559   39.5414   10.2262 C.ar    1  UNL1        0.1893
      3 N          12.5709   38.1472    8.9673 N.ar    1  UNL1       -0.1187
      4 N          11.3780   38.7055    9.1637 N.ar    1  UNL1       -0.1239
      5 S          12.8526   39.6258   10.9895 S.2     1  UNL1       -0.0102
      6 C           9.5452   41.2954    9.8947 C.2     1  UNL1        0.2266
      7 N          10.2013   40.2699   10.6539 N.am    1  UNL1       -0.2627
      8 O          10.0010   41.6426    8.7698 O.2     1  UNL1       -0.2747
      9 H           9.8279   40.0504   11.5381 H       1  UNL1        0.1568
     10 C           8.3384   41.9874   10.4748 C.3     1  UNL1        0.0692
     11 C           8.1596   41.5886   11.9282 C.3     1  UNL1        0.0091
     12 C           7.0673   41.6242    9.7235 C.3     1  UNL1        0.0091
     13 C           8.5341   43.4891   10.3975 C.3     1  UNL1        0.0091
     14 S          15.1596   37.9976    9.8594 S.O2    1  UNL1        0.1010
     15 O          15.3485   36.9619   10.9325 O.2     1  UNL1       -0.1477
     16 O          15.4862   37.3798    8.5288 O.2     1  UNL1       -0.1477
     17 C          17.1126   39.2886   11.2861 C.3     1  UNL1        0.1392
     18 N          16.2144   39.3506   10.1406 N.pl3   1  UNL1       -0.1870
     19 C          16.1906   40.5160    9.2912 C.ar    1  UNL1        0.0690
     20 C          17.3316   41.3225    9.1438 C.ar    1  UNL1        0.0170
     21 C          17.3069   42.4499    8.3189 C.ar    1  UNL1        0.0127
     22 C          16.1384   42.7865    7.6319 C.ar    1  UNL1        0.0578
     23 C          14.9959   41.9948    7.7682 C.ar    1  UNL1        0.0127
     24 C          15.0226   40.8658    8.5918 C.ar    1  UNL1        0.0170
     25 CL         16.1039   44.2038    6.6051 Cl      1  UNL1       -0.0822
@<TRIPOS>BOND
     1    17    18    1
     2    20    21   ar
     3    22    25    1
     4    22    23   ar
     5    24    19   ar
     6     1     5   ar
     7     2     7    1
     8     2     5   ar
     9    10     6    1
    10    10    11    1
    11    10    12    1
    12    10    13    1
    13    18    19    1
    14     3     4   ar
    15     7     6   am
    16    14    18    1
    17    14     1    1
    18    19    20   ar
    19    21    22   ar
    20    23    24   ar
    21     1     3   ar
    22     2     4   ar
    23     6     8    2
    24    14    15    2
    25    14    16    2
    26     7     9    1
@<TRIPOS>MOLECULE
MolPort-007-723-742 6818444 CHEMBL1311289 ChemDiv-E157-8442 MCULE-4528937544 PubChem-22518215 ZINC000006818444 ZINC06818444
 25 26 0 0 0
SMALL
GASTEIGER

@<TRIPOS>ATOM
      1 C          10.5507   42.0307    9.8891 C.ar    1  UNL1        0.2593
      2 C          12.4605   40.6030   10.0078 C.ar    1  UNL1        0.1893
      3 N          11.3782   42.1669    8.8298 N.ar    1  UNL1       -0.1187
      4 N          12.4448   41.3724    8.8961 N.ar    1  UNL1       -0.1239
      5 S          11.1188   40.8825   10.9835 S.2     1  UNL1       -0.0102
      6 C          14.8729   39.8012    9.9604 C.2     1  UNL1        0.2266
      7 N          13.4913   39.6619   10.3215 N.am    1  UNL1       -0.2627
      8 O          15.2555   40.7969    9.2853 O.2     1  UNL1       -0.2747
      9 H          13.2326   38.8560   10.8242 H       1  UNL1        0.1568
     10 C          15.8517   38.7238   10.3514 C.3     1  UNL1        0.0692
     11 C          15.7177   37.5360    9.4163 C.3     1  UNL1        0.0091
     12 C          15.6142   38.2379   11.7726 C.3     1  UNL1        0.0091
     13 C          17.2637   39.2681   10.2556 C.3     1  UNL1        0.0091
     14 S           9.0514   42.9182   10.0713 S.O2    1  UNL1        0.1010
     15 O           9.3353   44.2205   10.7666 O.2     1  UNL1       -0.1477
     16 O           8.4614   43.2105    8.7203 O.2     1  UNL1       -0.1477
     17 C           8.3812   41.4194   12.2670 C.3     1  UNL1        0.1392
     18 N           7.9238   41.9766   11.0007 N.pl3   1  UNL1       -0.1870
     19 C           6.5839   41.7231   10.5309 C.ar    1  UNL1        0.0690
     20 C           5.4825   41.8518   11.3936 C.ar    1  UNL1        0.0170
     21 C           4.1852   41.6077   10.9358 C.ar    1  UNL1        0.0127
     22 C           3.9732   41.2293    9.6081 C.ar    1  UNL1        0.0578
     23 C           5.0580   41.0970    8.7384 C.ar    1  UNL1        0.0127
     24 C           6.3550   41.3439    9.1970 C.ar    1  UNL1        0.0170
     25 CL          2.3491   40.9147    9.0360 Cl      1  UNL1       -0.0822
@<TRIPOS>BOND
     1    17    18    1
     2    20    21   ar
     3    22    25    1
     4    22    23   ar
     5    24    19   ar
     6     1     5   ar
     7     2     7    1
     8     2     5   ar
     9    10     6    1
    10    10    11    1
    11    10    12    1
    12    10    13    1
    13    18    19    1
    14     3     4   ar
    15     7     6   am
    16    14    18    1
    17    14     1    1
    18    19    20   ar
    19    21    22   ar
    20    23    24   ar
    21     1     3   ar
    22     2     4   ar
    23     6     8    2
    24    14    15    2
    25    14    16    2
    26     7     9    1
@<TRIPOS>MOLECULE
MolPort-007-723-742 6818444 CHEMBL1311289 ChemDiv-E157-8442 MCULE-4528937544 PubChem-22518215 ZINC000006818444 ZINC06818444
 25 26 0 0 0
SMALL
GASTEIGER

@<TRIPOS>ATOM
      1 C          10.8224   41.1696    7.3296 C.ar    1  UNL1        0.2593
      2 C          12.9952   42.0864    6.9578 C.ar    1  UNL1        0.1893
      3 N          11.1740   41.1817    6.0252 N.ar    1  UNL1       -0.1187
      4 N          12.3850   41.6948    5.8166 N.ar    1  UNL1       -0.1239
      5 S          12.0344   41.8081    8.3105 S.2     1  UNL1       -0.0102
      6 C          14.7884   43.6887    6.1321 C.2     1  UNL1        0.2266
      7 N          14.3012   42.6675    7.0144 N.am    1  UNL1       -0.2627
      8 O          14.0596   44.1197    5.1959 O.2     1  UNL1       -0.2747
      9 H          14.9134   42.3413    7.7131 H       1  UNL1        0.1568
     10 C          16.1943   44.2047    6.3031 C.3     1  UNL1        0.0692
     11 C          16.2511   45.6815    5.9582 C.3     1  UNL1        0.0091
     12 C          17.1758   43.4694    5.4041 C.3     1  UNL1        0.0091
     13 C          16.6262   44.0195    7.7448 C.3     1  UNL1        0.0091
     14 S           9.3030   40.5284    7.9204 S.O2    1  UNL1        0.1010
     15 O           8.5672   39.8838    6.7789 O.2     1  UNL1       -0.1477
     16 O           9.5607   39.4907    8.9766 O.2     1  UNL1       -0.1477
     17 C           8.7920   43.1842    8.3704 C.3     1  UNL1        0.1392
     18 N           8.3494   41.8147    8.5973 N.pl3   1  UNL1       -0.1870
     19 C           7.1711   41.5472    9.3850 C.ar    1  UNL1        0.0690
     20 C           7.2065   41.6386   10.7866 C.ar    1  UNL1        0.0170
     21 C           6.0633   41.3811   11.5476 C.ar    1  UNL1        0.0127
     22 C           4.8695   41.0263   10.9154 C.ar    1  UNL1        0.0578
     23 C           4.8185   40.9311    9.5229 C.ar    1  UNL1        0.0127
     24 C           5.9621   41.1914    8.7627 C.ar    1  UNL1        0.0170
     25 CL          3.4391   40.6947   11.8685 Cl      1  UNL1       -0.0822
@<TRIPOS>BOND
     1    17    18    1
     2    20    21   ar
     3    22    25    1
     4    22    23   ar
     5    24    19   ar
     6     1     5   ar
     7     2     7    1
     8     2     5   ar
     9    10     6    1
    10    10    11    1
    11    10    12    1
    12    10    13    1
    13    18    19    1
    14     3     4   ar
    15     7     6   am
    16    14    18    1
    17    14     1    1
    18    19    20   ar
    19    21    22   ar
    20    23    24   ar
    21     1     3   ar
    22     2     4   ar
    23     6     8    2
    24    14    15    2
    25    14    16    2
    26     7     9    1
@<TRIPOS>MOLECULE
MolPort-007-723-742 6818444 CHEMBL1311289 ChemDiv-E157-8442 MCULE-4528937544 PubChem-22518215 ZINC000006818444 ZINC06818444
 25 26 0 0 0
SMALL
GASTEIGER

@<TRIPOS>ATOM
      1 C          11.1411   41.2303    7.2117 C.ar    1  UNL1        0.2593
      2 C          13.4766   41.7168    7.3005 C.ar    1  UNL1        0.1893
      3 N          11.5661   41.9707    6.1646 N.ar    1  UNL1       -0.1187
      4 N          12.8684   42.2444    6.2143 N.ar    1  UNL1       -0.1239
      5 S          12.3983   40.8675    8.2731 S.2     1  UNL1       -0.0102
      6 C          15.6383   43.0531    7.3818 C.2     1  UNL1        0.2266
      7 N          14.8698   41.8598    7.5924 N.am    1  UNL1       -0.2627
      8 O          15.0989   44.0740    6.8717 O.2     1  UNL1       -0.2747
      9 H          15.3377   41.0788    7.9669 H       1  UNL1        0.1568
     10 C          17.1051   43.0588    7.7287 C.3     1  UNL1        0.0692
     11 C          17.3911   44.1362    8.7586 C.3     1  UNL1        0.0091
     12 C          17.9701   43.3283    6.5075 C.3     1  UNL1        0.0091
     13 C          17.4905   41.7111    8.3070 C.3     1  UNL1        0.0091
     14 S           9.4876   40.6865    7.4096 S.O2    1  UNL1        0.1010
     15 O           8.8050   40.6988    6.0702 O.2     1  UNL1       -0.1477
     16 O           9.4705   39.2832    7.9476 O.2     1  UNL1       -0.1477
     17 C           7.8517   42.8174    7.9569 C.3     1  UNL1        0.1392
     18 N           8.6548   41.7376    8.5157 N.pl3   1  UNL1       -0.1870
     19 C           8.7700   41.5747    9.9442 C.ar    1  UNL1        0.0690
     20 C          10.0220   41.3638   10.5457 C.ar    1  UNL1        0.0170
     21 C          10.1315   41.2083   11.9299 C.ar    1  UNL1        0.0127
     22 C           8.9882   41.2596   12.7306 C.ar    1  UNL1        0.0578
     23 C           7.7365   41.4685   12.1473 C.ar    1  UNL1        0.0127
     24 C           7.6286   41.6264   10.7628 C.ar    1  UNL1        0.0170
     25 CL          9.1233   41.0560   14.4639 Cl      1  UNL1       -0.0822
@<TRIPOS>BOND
     1    17    18    1
     2    20    21   ar
     3    22    25    1
     4    22    23   ar
     5    24    19   ar
     6     1     5   ar
     7     2     7    1
     8     2     5   ar
     9    10     6    1
    10    10    11    1
    11    10    12    1
    12    10    13    1
    13    18    19    1
    14     3     4   ar
    15     7     6   am
    16    14    18    1
    17    14     1    1
    18    19    20   ar
    19    21    22   ar
    20    23    24   ar
    21     1     3   ar
    22     2     4   ar
    23     6     8    2
    24    14    15    2
    25    14    16    2
    26     7     9    1
@<TRIPOS>MOLECULE
MolPort-007-723-742 6818444 CHEMBL1311289 ChemDiv-E157-8442 MCULE-4528937544 PubChem-22518215 ZINC000006818444 ZINC06818444
 25 26 0 0 0
SMALL
GASTEIGER

@<TRIPOS>ATOM
      1 C          13.8346   39.8694   10.1937 C.ar    1  UNL1        0.2593
      2 C          11.9226   41.1880    9.6414 C.ar    1  UNL1        0.1893
      3 N          14.0441   40.6870    9.1387 N.ar    1  UNL1       -0.1187
      4 N          12.9775   41.4214    8.8286 N.ar    1  UNL1       -0.1239
      5 S          12.2745   40.0295   10.8094 S.2     1  UNL1       -0.0102
      6 C           9.6221   41.4862    8.6002 C.2     1  UNL1        0.2266
      7 N          10.6569   41.8450    9.5272 N.am    1  UNL1       -0.2627
      8 O           9.8045   40.5461    7.7777 O.2     1  UNL1       -0.2747
      9 H          10.4823   42.6022   10.1316 H       1  UNL1        0.1568
     10 C           8.3373   42.2741    8.5848 C.3     1  UNL1        0.0692
     11 C           7.9067   42.5376    7.1536 C.3     1  UNL1        0.0091
     12 C           8.4912   43.6134    9.2882 C.3     1  UNL1        0.0091
     13 C           7.2523   41.4806    9.2866 C.3     1  UNL1        0.0091
     14 S          15.0582   38.8051   10.8561 S.O2    1  UNL1        0.1010
     15 O          16.4150   39.3010   10.4402 O.2     1  UNL1       -0.1477
     16 O          14.9820   38.8081   12.3572 O.2     1  UNL1       -0.1477
     17 C          13.7179   36.4134   10.8521 C.3     1  UNL1        0.1392
     18 N          14.8060   37.1880   10.2699 N.pl3   1  UNL1       -0.1870
     19 C          15.6580   36.6094    9.2601 C.ar    1  UNL1        0.0690
     20 C          17.0417   36.4863    9.4702 C.ar    1  UNL1        0.0170
     21 C          17.8648   35.9236    8.4915 C.ar    1  UNL1        0.0127
     22 C          17.3137   35.4783    7.2877 C.ar    1  UNL1        0.0578
     23 C          15.9400   35.5940    7.0640 C.ar    1  UNL1        0.0127
     24 C          15.1173   36.1549    8.0449 C.ar    1  UNL1        0.0170
     25 CL         18.3454   34.7814    6.0573 Cl      1  UNL1       -0.0822
@<TRIPOS>BOND
     1    17    18    1
     2    20    21   ar
     3    22    25    1
     4    22    23   ar
     5    24    19   ar
     6     1     5   ar
     7     2     7    1
     8     2     5   ar
     9    10     6    1
    10    10    11    1
    11    10    12    1
    12    10    13    1
    13    18    19    1
    14     3     4   ar
    15     7     6   am
    16    14    18    1
    17    14     1    1
    18    19    20   ar
    19    21    22   ar
    20    23    24   ar
    21     1     3   ar
    22     2     4   ar
    23     6     8    2
    24    14    15    2
    25    14    16    2
    26     7     9    1
@<TRIPOS>MOLECULE
MolPort-007-723-742 6818444 CHEMBL1311289 ChemDiv-E157-8442 MCULE-4528937544 PubChem-22518215 ZINC000006818444 ZINC06818444
 25 26 0 0 0
SMALL
GASTEIGER

@<TRIPOS>ATOM
      1 C          10.4883   41.9612   10.0946 C.ar    1  UNL1        0.2593
      2 C          12.4472   40.5996   10.1851 C.ar    1  UNL1        0.1893
      3 N          11.3704   42.2395    9.1098 N.ar    1  UNL1       -0.1187
      4 N          12.4644   41.4819    9.1607 N.ar    1  UNL1       -0.1239
      5 S          11.0393   40.7245   11.0974 S.2     1  UNL1       -0.0102
      6 C          14.8473   39.7828    9.9923 C.2     1  UNL1        0.2266
      7 N          13.4971   39.6686   10.4639 N.am    1  UNL1       -0.2627
      8 O          15.1792   40.7431    9.2431 O.2     1  UNL1       -0.2747
      9 H          13.2759   38.8890   11.0228 H       1  UNL1        0.1568
     10 C          15.8510   38.7197   10.3586 C.3     1  UNL1        0.0692
     11 C          15.5473   38.1731   11.7415 C.3     1  UNL1        0.0091
     12 C          17.2703   39.2653   10.3654 C.3     1  UNL1        0.0091
     13 C          15.7728   37.5866    9.3540 C.3     1  UNL1        0.0091
     14 S           8.9441   42.7691   10.2727 S.O2    1  UNL1        0.1010
     15 O           8.3979   42.4834   11.6438 O.2     1  UNL1       -0.1477
     16 O           9.1222   44.2539   10.1233 O.2     1  UNL1       -0.1477
     17 C           8.1564   40.9416    8.3868 C.3     1  UNL1        0.1392
     18 N           7.8410   42.1962    9.0573 N.pl3   1  UNL1       -0.1870
     19 C           6.6624   42.9441    8.6944 C.ar    1  UNL1        0.0690
     20 C           6.7064   43.9037    7.6691 C.ar    1  UNL1        0.0170
     21 C           5.5628   44.6256    7.3178 C.ar    1  UNL1        0.0127
     22 C           4.3599   44.3979    7.9900 C.ar    1  UNL1        0.0578
     23 C           4.3003   43.4474    9.0116 C.ar    1  UNL1        0.0127
     24 C           5.4443   42.7241    9.3604 C.ar    1  UNL1        0.0170
     25 CL          2.9289   45.3082    7.5566 Cl      1  UNL1       -0.0822
@<TRIPOS>BOND
     1    17    18    1
     2    20    21   ar
     3    22    25    1
     4    22    23   ar
     5    24    19   ar
     6     1     5   ar
     7     2     7    1
     8     2     5   ar
     9    10     6    1
    10    10    11    1
    11    10    12    1
    12    10    13    1
    13    18    19    1
    14     3     4   ar
    15     7     6   am
    16    14    18    1
    17    14     1    1
    18    19    20   ar
    19    21    22   ar
    20    23    24   ar
    21     1     3   ar
    22     2     4   ar
    23     6     8    2
    24    14    15    2
    25    14    16    2
    26     7     9    1
@<TRIPOS>MOLECULE
MolPort-007-723-742 6818444 CHEMBL1311289 ChemDiv-E157-8442 MCULE-4528937544 PubChem-22518215 ZINC000006818444 ZINC06818444
 25 26 0 0 0
SMALL
GASTEIGER

@<TRIPOS>ATOM
      1 C          11.2871   41.1004    7.4433 C.ar    1  UNL1        0.2593
      2 C          13.6053   41.6697    7.4782 C.ar    1  UNL1        0.1893
      3 N          11.6991   41.7058    6.3079 N.ar    1  UNL1       -0.1187
      4 N          12.9916   42.0256    6.3273 N.ar    1  UNL1       -0.1239
      5 S          12.5446   40.9253    8.5509 S.2     1  UNL1       -0.0102
      6 C          15.7169   43.0846    7.4125 C.2     1  UNL1        0.2266
      7 N          14.9905   41.8958    7.7557 N.am    1  UNL1       -0.2627
      8 O          15.1446   44.0204    6.7879 O.2     1  UNL1       -0.2747
      9 H          15.4836   41.1800    8.2180 H       1  UNL1        0.1568
     10 C          17.1801   43.1833    7.7604 C.3     1  UNL1        0.0692
     11 C          17.7108   41.8205    8.1660 C.3     1  UNL1        0.0091
     12 C          17.4201   44.1476    8.9115 C.3     1  UNL1        0.0091
     13 C          17.9529   43.6718    6.5507 C.3     1  UNL1        0.0091
     14 S           9.6496   40.5352    7.7040 S.O2    1  UNL1        0.1010
     15 O           8.8572   40.7328    6.4418 O.2     1  UNL1       -0.1477
     16 O           9.6607   39.0711    8.0433 O.2     1  UNL1       -0.1477
     17 C           9.5754   41.3715   10.3139 C.3     1  UNL1        0.1392
     18 N           8.9255   41.4238    9.0109 N.pl3   1  UNL1       -0.1870
     19 C           7.7042   42.1699    8.8315 C.ar    1  UNL1        0.0690
     20 C           7.7367   43.5321    8.4890 C.ar    1  UNL1        0.0170
     21 C           6.5524   44.2523    8.3137 C.ar    1  UNL1        0.0127
     22 C           5.3190   43.6187    8.4812 C.ar    1  UNL1        0.0578
     23 C           5.2702   42.2651    8.8218 C.ar    1  UNL1        0.0127
     24 C           6.4557   41.5451    8.9944 C.ar    1  UNL1        0.0170
     25 CL          3.8347   44.5225    8.2706 Cl      1  UNL1       -0.0822
@<TRIPOS>BOND
     1    17    18    1
     2    20    21   ar
     3    22    25    1
     4    22    23   ar
     5    24    19   ar
     6     1     5   ar
     7     2     7    1
     8     2     5   ar
     9    10     6    1
    10    10    11    1
    11    10    12    1
    12    10    13    1
    13    18    19    1
    14     3     4   ar
    15     7     6   am
    16    14    18    1
    17    14     1    1
    18    19    20   ar
    19    21    22   ar
    20    23    24   ar
    21     1     3   ar
    22     2     4   ar
    23     6     8    2
    24    14    15    2
    25    14    16    2
    26     7     9    1
@<TRIPOS>MOLECULE
MolPort-007-723-742 6818444 CHEMBL1311289 ChemDiv-E157-8442 MCULE-4528937544 PubChem-22518215 ZINC000006818444 ZINC06818444
 25 26 0 0 0
SMALL
GASTEIGER

@<TRIPOS>ATOM
      1 C           9.8244   40.7089    8.4968 C.ar    1  UNL1        0.2593
      2 C           7.4750   41.1320    8.5179 C.ar    1  UNL1        0.1893
      3 N           9.1310   39.8768    7.6892 N.ar    1  UNL1       -0.1187
      4 N           7.8202   40.1107    7.7019 N.ar    1  UNL1       -0.1239
      5 S           8.8143   41.8061    9.2806 S.2     1  UNL1       -0.0102
      6 C           5.4066   41.5117    9.9472 C.2     1  UNL1        0.2266
      7 N           6.1334   41.5893    8.7125 N.am    1  UNL1       -0.2627
      8 O           5.9343   40.9779   10.9621 O.2     1  UNL1       -0.2747
      9 H           5.6732   41.9884    7.9391 H       1  UNL1        0.1568
     10 C           3.9916   42.0274   10.0059 C.3     1  UNL1        0.0692
     11 C           3.5952   42.2938   11.4465 C.3     1  UNL1        0.0091
     12 C           3.0052   41.0298    9.4193 C.3     1  UNL1        0.0091
     13 C           3.8950   43.3217    9.2220 C.3     1  UNL1        0.0091
     14 S          11.5672   40.6670    8.6689 S.O2    1  UNL1        0.1010
     15 O          11.9630   41.5148    9.8457 O.2     1  UNL1       -0.1477
     16 O          12.0244   39.2565    8.9142 O.2     1  UNL1       -0.1477
     17 C          11.6187   41.0564    5.9556 C.3     1  UNL1        0.1392
     18 N          12.3126   41.2701    7.2188 N.pl3   1  UNL1       -0.1870
     19 C          13.5911   41.9371    7.2481 C.ar    1  UNL1        0.0690
     20 C          13.8037   43.1177    6.5167 C.ar    1  UNL1        0.0170
     21 C          15.0424   43.7633    6.5481 C.ar    1  UNL1        0.0127
     22 C          16.0861   43.2342    7.3107 C.ar    1  UNL1        0.0578
     23 C          15.8903   42.0612    8.0431 C.ar    1  UNL1        0.0127
     24 C          14.6499   41.4177    8.0128 C.ar    1  UNL1        0.0170
     25 CL         17.6410   44.0374    7.3435 Cl      1  UNL1       -0.0822
@<TRIPOS>BOND
     1    17    18    1
     2    20    21   ar
     3    22    25    1
     4    22    23   ar
     5    24    19   ar
     6     1     5   ar
     7     2     7    1
     8     2     5   ar
     9    10     6    1
    10    10    11    1
    11    10    12    1
    12    10    13    1
    13    18    19    1
    14     3     4   ar
    15     7     6   am
    16    14    18    1
    17    14     1    1
    18    19    20   ar
    19    21    22   ar
    20    23    24   ar
    21     1     3   ar
    22     2     4   ar
    23     6     8    2
    24    14    15    2
    25    14    16    2
    26     7     9    1
@<TRIPOS>MOLECULE
MolPort-007-723-742 6818444 CHEMBL1311289 ChemDiv-E157-8442 MCULE-4528937544 PubChem-22518215 ZINC000006818444 ZINC06818444
 25 26 0 0 0
SMALL
GASTEIGER

@<TRIPOS>ATOM
      1 C           9.0014   41.1933    6.9568 C.ar    1  UNL1        0.2593
      2 C           6.7549   41.3672    7.7456 C.ar    1  UNL1        0.1893
      3 N           8.2561   42.0623    6.2395 N.ar    1  UNL1       -0.1187
      4 N           7.0022   42.1585    6.6774 N.ar    1  UNL1       -0.1239
      5 S           8.1147   40.4896    8.2046 S.2     1  UNL1       -0.0102
      6 C           5.2955   41.3897    9.8276 C.2     1  UNL1        0.2266
      7 N           5.4907   41.2831    8.4101 N.am    1  UNL1       -0.2627
      8 O           6.2863   41.5371   10.5957 O.2     1  UNL1       -0.2747
      9 H           4.6927   41.1410    7.8514 H       1  UNL1        0.1568
     10 C           3.9032   41.2738   10.3930 C.3     1  UNL1        0.0692
     11 C           2.8932   41.1551    9.2664 C.3     1  UNL1        0.0091
     12 C           3.5355   42.4862   11.2339 C.3     1  UNL1        0.0091
     13 C           3.8156   40.0358   11.2642 C.3     1  UNL1        0.0091
     14 S          10.6950   40.8752    6.6415 S.O2    1  UNL1        0.1010
     15 O          10.8110   39.6395    5.7932 O.2     1  UNL1       -0.1477
     16 O          11.3038   42.0307    5.8978 O.2     1  UNL1       -0.1477
     17 C          11.8764   41.8359    8.9214 C.3     1  UNL1        0.1392
     18 N          11.5375   40.6502    8.1454 N.pl3   1  UNL1       -0.1870
     19 C          11.9202   39.3386    8.6078 C.ar    1  UNL1        0.0690
     20 C          13.2361   38.8740    8.4453 C.ar    1  UNL1        0.0170
     21 C          13.6052   37.6039    8.8958 C.ar    1  UNL1        0.0127
     22 C          12.6607   36.7808    9.5133 C.ar    1  UNL1        0.0578
     23 C          11.3486   37.2285    9.6819 C.ar    1  UNL1        0.0127
     24 C          10.9813   38.5001    9.2331 C.ar    1  UNL1        0.0170
     25 CL         13.1200   35.1860   10.0699 Cl      1  UNL1       -0.0822
@<TRIPOS>BOND
     1    17    18    1
     2    20    21   ar
     3    22    25    1
     4    22    23   ar
     5    24    19   ar
     6     1     5   ar
     7     2     7    1
     8     2     5   ar
     9    10     6    1
    10    10    11    1
    11    10    12    1
    12    10    13    1
    13    18    19    1
    14     3     4   ar
    15     7     6   am
    16    14    18    1
    17    14     1    1
    18    19    20   ar
    19    21    22   ar
    20    23    24   ar
    21     1     3   ar
    22     2     4   ar
    23     6     8    2
    24    14    15    2
    25    14    16    2
    26     7     9    1
@<TRIPOS>MOLECULE
MolPort-007-723-742 6818444 CHEMBL1311289 ChemDiv-E157-8442 MCULE-4528937544 PubChem-22518215 ZINC000006818444 ZINC06818444
 25 26 0 0 0
SMALL
GASTEIGER

@<TRIPOS>ATOM
      1 C           9.5477   42.0802    8.5713 C.ar    1  UNL1        0.2593
      2 C           7.2409   42.1020    9.1862 C.ar    1  UNL1        0.1893
      3 N           9.1797   43.2182    9.1997 N.ar    1  UNL1       -0.1187
      4 N           7.8927   43.2322    9.5413 N.ar    1  UNL1       -0.1239
      5 S           8.2576   41.0082    8.4116 S.2     1  UNL1       -0.0102
      6 C           5.3043   41.4383   10.6941 C.2     1  UNL1        0.2266
      7 N           5.8535   41.8597    9.4373 N.am    1  UNL1       -0.2627
      8 O           6.0644   41.2188   11.6777 O.2     1  UNL1       -0.2747
      9 H           5.2269   41.9924    8.6897 H       1  UNL1        0.1568
     10 C           3.8188   41.2125   10.8133 C.3     1  UNL1        0.0692
     11 C           3.1878   41.1675    9.4338 C.3     1  UNL1        0.0091
     12 C           3.1442   42.3198   11.6077 C.3     1  UNL1        0.0091
     13 C           3.5655   39.8914   11.5132 C.3     1  UNL1        0.0091
     14 S          11.1811   41.7546    8.0285 S.O2    1  UNL1        0.1010
     15 O          11.2288   41.8615    6.5297 O.2     1  UNL1       -0.1477
     16 O          12.1271   42.7643    8.6152 O.2     1  UNL1       -0.1477
     17 C          10.7576   39.0534    8.2306 C.3     1  UNL1        0.1392
     18 N          11.6571   40.1597    8.5304 N.pl3   1  UNL1       -0.1870
     19 C          12.8872   39.9293    9.2473 C.ar    1  UNL1        0.0690
     20 C          12.8717   39.4454   10.5663 C.ar    1  UNL1        0.0170
     21 C          14.0647   39.2210   11.2581 C.ar    1  UNL1        0.0127
     22 C          15.2897   39.4803   10.6393 C.ar    1  UNL1        0.0578
     23 C          15.3215   39.9618    9.3287 C.ar    1  UNL1        0.0127
     24 C          14.1275   40.1835    8.6368 C.ar    1  UNL1        0.0170
     25 CL         16.7845   39.2080   11.5085 Cl      1  UNL1       -0.0822
@<TRIPOS>BOND
     1    17    18    1
     2    20    21   ar
     3    22    25    1
     4    22    23   ar
     5    24    19   ar
     6     1     5   ar
     7     2     7    1
     8     2     5   ar
     9    10     6    1
    10    10    11    1
    11    10    12    1
    12    10    13    1
    13    18    19    1
    14     3     4   ar
    15     7     6   am
    16    14    18    1
    17    14     1    1
    18    19    20   ar
    19    21    22   ar
    20    23    24   ar
    21     1     3   ar
    22     2     4   ar
    23     6     8    2
    24    14    15    2
    25    14    16    2
    26     7     9    1
