@<TRIPOS>MOLECULE
MolPort-010-722-898 21721278 ChemDiv-J015-0289 MCULE-1637542318 PubChem-22587065 ZINC000021721278 ZINC21721278
 25 27 0 0 0
SMALL
GASTEIGER

@<TRIPOS>ATOM
      1 C          11.8588   40.7249    9.3836 C.2     1  UNL1        0.2678
      2 O          11.5144   39.8570   10.2281 O.2     1  UNL1       -0.2681
      3 N          10.8631   41.5056    8.7048 N.am    1  UNL1       -0.2791
      4 H          11.1912   42.1574    8.0441 H       1  UNL1        0.1552
      5 C          13.2872   40.9641    9.0706 C.ar    1  UNL1        0.1425
      6 C          14.8495   42.2570    7.7979 C.ar    1  UNL1        0.1502
      7 C          15.9198   41.5575    8.3610 C.ar    1  UNL1        0.0380
      8 C          15.6651   40.5508    9.2879 C.ar    1  UNL1        0.0115
      9 C          14.3550   40.2390    9.6559 C.ar    1  UNL1        0.0568
     10 N          13.5777   41.9419    8.1660 N.ar    1  UNL1       -0.2228
     11 BR         14.1447   38.8291   10.9379 Br      1  UNL1       -0.0473
     12 C          16.0480   44.2305    6.8774 C.ar    1  UNL1        0.2080
     13 C          14.3869   43.5503    5.7157 C.ar    1  UNL1        0.2080
     14 N          15.0810   43.2972    6.8400 N.ar    1  UNL1       -0.2533
     15 N          15.9470   45.0345    5.8025 N.ar    1  UNL1       -0.1250
     16 N          14.9177   44.6128    5.0825 N.ar    1  UNL1       -0.1250
     17 C           7.2516   41.0153    7.9256 C.ar    1  UNL1        0.0085
     18 C           6.6541   41.2891    9.1610 C.ar    1  UNL1       -0.0018
     19 C           7.4456   41.6408   10.2573 C.ar    1  UNL1        0.0010
     20 C           8.8345   41.7159   10.1200 C.ar    1  UNL1        0.0147
     21 C           9.4421   41.4381    8.8857 C.ar    1  UNL1        0.0503
     22 C           8.6418   41.0874    7.7927 C.ar    1  UNL1        0.0128
     23 C           6.4166   40.6292    6.7544 C.3     1  UNL1        0.1687
     24 C           6.5071   42.6251    5.8194 C.3     1  UNL1        0.1746
     25 O           6.8619   41.2931    5.6107 O.3     1  UNL1       -0.3463
@<TRIPOS>BOND
     1    24    25    1
     2    23    25    1
     3    23    17    1
     4    18    19   ar
     5    20    21   ar
     6    21     3    1
     7     1     5    1
     8     6    10   ar
     9     6    14    1
    10     7     8   ar
    11     9    11    1
    12     9     5   ar
    13    13    14   ar
    14    22    17   ar
    15     3     1   am
    16    14    12   ar
    17    15    16   ar
    18    17    18   ar
    19    19    20   ar
    20    21    22   ar
    21     1     2    2
    22     5    10   ar
    23     6     7   ar
    24     8     9   ar
    25    12    15   ar
    26    13    16   ar
    27     3     4    1
@<TRIPOS>MOLECULE
MolPort-010-722-898 21721278 ChemDiv-J015-0289 MCULE-1637542318 PubChem-22587065 ZINC000021721278 ZINC21721278
 25 27 0 0 0
SMALL
GASTEIGER

@<TRIPOS>ATOM
      1 C          11.2605   40.7362    8.5062 C.2     1  UNL1        0.2678
      2 O          10.7738   39.5763    8.4540 O.2     1  UNL1       -0.2681
      3 N          10.3942   41.8792    8.5762 N.am    1  UNL1       -0.2791
      4 H          10.8315   42.7610    8.5989 H       1  UNL1        0.1552
      5 C          12.7263   40.9525    8.4990 C.ar    1  UNL1        0.1425
      6 C          14.5427   42.1999    7.5628 C.ar    1  UNL1        0.1502
      7 C          15.4584   41.5007    8.3529 C.ar    1  UNL1        0.0380
      8 C          14.9974   40.5171    9.2234 C.ar    1  UNL1        0.0115
      9 C          13.6345   40.2281    9.3108 C.ar    1  UNL1        0.0568
     10 N          13.2170   41.9073    7.6585 N.ar    1  UNL1       -0.2228
     11 BR         13.1354   38.8486   10.5451 Br      1  UNL1       -0.0473
     12 C          16.0902   43.9778    6.7733 C.ar    1  UNL1        0.2080
     13 C          14.4025   43.6133    5.5122 C.ar    1  UNL1        0.2080
     14 N          14.9882   43.2166    6.6565 N.ar    1  UNL1       -0.2533
     15 N          16.1757   44.8193    5.7262 N.ar    1  UNL1       -0.1250
     16 N          15.1298   44.5934    4.9446 N.ar    1  UNL1       -0.1250
     17 C           6.9280   41.6214    9.9212 C.ar    1  UNL1        0.0085
     18 C           6.1598   41.8470    8.7735 C.ar    1  UNL1       -0.0018
     19 C           6.7875   42.0824    7.5477 C.ar    1  UNL1        0.0010
     20 C           8.1829   42.0954    7.4691 C.ar    1  UNL1        0.0147
     21 C           8.9608   41.8748    8.6164 C.ar    1  UNL1        0.0503
     22 C           8.3239   41.6391    9.8400 C.ar    1  UNL1        0.0128
     23 C           6.2674   41.3803   11.2341 C.3     1  UNL1        0.1687
     24 C           4.2675   40.4817   11.4771 C.3     1  UNL1        0.1746
     25 O           4.9065   41.6756   11.1454 O.3     1  UNL1       -0.3463
@<TRIPOS>BOND
     1    24    25    1
     2    23    25    1
     3    23    17    1
     4    18    19   ar
     5    20    21   ar
     6    21     3    1
     7     1     5    1
     8     6    10   ar
     9     6    14    1
    10     7     8   ar
    11     9    11    1
    12     9     5   ar
    13    13    14   ar
    14    22    17   ar
    15     3     1   am
    16    14    12   ar
    17    15    16   ar
    18    17    18   ar
    19    19    20   ar
    20    21    22   ar
    21     1     2    2
    22     5    10   ar
    23     6     7   ar
    24     8     9   ar
    25    12    15   ar
    26    13    16   ar
    27     3     4    1
@<TRIPOS>MOLECULE
MolPort-010-722-898 21721278 ChemDiv-J015-0289 MCULE-1637542318 PubChem-22587065 ZINC000021721278 ZINC21721278
 25 27 0 0 0
SMALL
GASTEIGER

@<TRIPOS>ATOM
      1 C          12.0440   40.5100    9.7320 C.2     1  UNL1        0.2678
      2 O          11.5583   39.3486    9.7118 O.2     1  UNL1       -0.2681
      3 N          11.2543   41.6137   10.2010 N.am    1  UNL1       -0.2791
      4 H          11.6817   42.5003   10.1788 H       1  UNL1        0.1552
      5 C          13.4307   40.7680    9.2786 C.ar    1  UNL1        0.1425
      6 C          14.8285   41.9887    7.7659 C.ar    1  UNL1        0.1502
      7 C          15.9696   41.3826    8.2972 C.ar    1  UNL1        0.0380
      8 C          15.8338   40.4592    9.3300 C.ar    1  UNL1        0.0115
      9 C          14.5723   40.1383    9.8345 C.ar    1  UNL1        0.0568
     10 N          13.6052   41.6659    8.2675 N.ar    1  UNL1       -0.2228
     11 BR         14.5266   38.8487   11.2523 Br      1  UNL1       -0.0473
     12 C          13.9868   43.2693    5.8088 C.ar    1  UNL1        0.2080
     13 C          16.0017   43.6993    6.3803 C.ar    1  UNL1        0.2080
     14 N          14.9373   42.9417    6.7013 N.ar    1  UNL1       -0.2533
     15 N          14.4588   44.2039    4.9628 N.ar    1  UNL1       -0.1250
     16 N          15.7074   44.4705    5.3171 N.ar    1  UNL1       -0.1250
     17 C           7.5279   41.5527   10.2258 C.ar    1  UNL1        0.0085
     18 C           7.2536   41.4737   11.5957 C.ar    1  UNL1       -0.0018
     19 C           8.3028   41.4437   12.5178 C.ar    1  UNL1        0.0010
     20 C           9.6263   41.4895   12.0709 C.ar    1  UNL1        0.0147
     21 C           9.9102   41.5638   10.6984 C.ar    1  UNL1        0.0503
     22 C           8.8533   41.5942    9.7817 C.ar    1  UNL1        0.0128
     23 C           6.4160   41.5743    9.2352 C.3     1  UNL1        0.1687
     24 C           5.7767   43.5998    8.6396 C.3     1  UNL1        0.1746
     25 O           5.5091   42.5847    9.5571 O.3     1  UNL1       -0.3463
@<TRIPOS>BOND
     1    24    25    1
     2    23    25    1
     3    23    17    1
     4    18    19   ar
     5    20    21   ar
     6    21     3    1
     7     1     5    1
     8     6    10   ar
     9     6    14    1
    10     7     8   ar
    11     9    11    1
    12     9     5   ar
    13    13    14   ar
    14    22    17   ar
    15     3     1   am
    16    14    12   ar
    17    15    16   ar
    18    17    18   ar
    19    19    20   ar
    20    21    22   ar
    21     1     2    2
    22     5    10   ar
    23     6     7   ar
    24     8     9   ar
    25    12    15   ar
    26    13    16   ar
    27     3     4    1
@<TRIPOS>MOLECULE
MolPort-010-722-898 21721278 ChemDiv-J015-0289 MCULE-1637542318 PubChem-22587065 ZINC000021721278 ZINC21721278
 25 27 0 0 0
SMALL
GASTEIGER

@<TRIPOS>ATOM
      1 C          10.2380   41.8449    7.6910 C.2     1  UNL1        0.2678
      2 O           9.6212   41.4159    6.6807 O.2     1  UNL1       -0.2681
      3 N           9.5249   42.5222    8.7372 N.am    1  UNL1       -0.2791
      4 H          10.0623   42.8492    9.4945 H       1  UNL1        0.1552
      5 C          11.7020   41.6633    7.8285 C.ar    1  UNL1        0.1425
      6 C          13.8678   42.5224    7.2778 C.ar    1  UNL1        0.1502
      7 C          14.4824   41.4845    7.9827 C.ar    1  UNL1        0.0380
      8 C          13.6932   40.5279    8.6149 C.ar    1  UNL1        0.0115
      9 C          12.3006   40.5999    8.5493 C.ar    1  UNL1        0.0568
     10 N          12.5092   42.5797    7.2222 N.ar    1  UNL1       -0.2228
     11 BR         11.3340   39.2169    9.4595 Br      1  UNL1       -0.0473
     12 C          14.2458   44.3648    5.6526 C.ar    1  UNL1        0.2080
     13 C          15.9505   43.8172    6.8212 C.ar    1  UNL1        0.2080
     14 N          14.6545   43.5206    6.6157 N.ar    1  UNL1       -0.2533
     15 N          15.2672   45.1578    5.2784 N.ar    1  UNL1       -0.1250
     16 N          16.3236   44.8184    6.0027 N.ar    1  UNL1       -0.1250
     17 C           5.9243   42.0967    9.6005 C.ar    1  UNL1        0.0085
     18 C           5.3458   43.1976    8.9590 C.ar    1  UNL1       -0.0018
     19 C           6.1463   44.0842    8.2344 C.ar    1  UNL1        0.0010
     20 C           7.5255   43.8727    8.1534 C.ar    1  UNL1        0.0147
     21 C           8.1144   42.7737    8.7979 C.ar    1  UNL1        0.0503
     22 C           7.3051   41.8902    9.5208 C.ar    1  UNL1        0.0128
     23 C           5.0802   41.1525   10.3839 C.3     1  UNL1        0.1687
     24 C           3.4175   41.7547   11.7027 C.3     1  UNL1        0.1746
     25 O           4.8088   41.6872   11.6439 O.3     1  UNL1       -0.3463
@<TRIPOS>BOND
     1    24    25    1
     2    23    25    1
     3    23    17    1
     4    18    19   ar
     5    20    21   ar
     6    21     3    1
     7     1     5    1
     8     6    10   ar
     9     6    14    1
    10     7     8   ar
    11     9    11    1
    12     9     5   ar
    13    13    14   ar
    14    22    17   ar
    15     3     1   am
    16    14    12   ar
    17    15    16   ar
    18    17    18   ar
    19    19    20   ar
    20    21    22   ar
    21     1     2    2
    22     5    10   ar
    23     6     7   ar
    24     8     9   ar
    25    12    15   ar
    26    13    16   ar
    27     3     4    1
@<TRIPOS>MOLECULE
MolPort-010-722-898 21721278 ChemDiv-J015-0289 MCULE-1637542318 PubChem-22587065 ZINC000021721278 ZINC21721278
 25 27 0 0 0
SMALL
GASTEIGER

@<TRIPOS>ATOM
      1 C          11.4394   40.8783    9.1023 C.2     1  UNL1        0.2678
      2 O          10.7836   40.0368    8.4337 O.2     1  UNL1       -0.2681
      3 N          10.7868   41.6636   10.1118 N.am    1  UNL1       -0.2791
      4 H          11.3470   42.3162   10.5909 H       1  UNL1        0.1552
      5 C          12.8889   41.0788    8.8699 C.ar    1  UNL1        0.1425
      6 C          14.5528   42.2866    7.6432 C.ar    1  UNL1        0.1502
      7 C          15.5719   41.5947    8.3024 C.ar    1  UNL1        0.0380
      8 C          15.2400   40.6349    9.2543 C.ar    1  UNL1        0.0115
      9 C          13.9036   40.3623    9.5522 C.ar    1  UNL1        0.0568
     10 N          13.2545   42.0101    7.9437 N.ar    1  UNL1       -0.2228
     11 BR         13.5860   39.0147   10.8784 Br      1  UNL1       -0.0473
     12 C          15.8639   44.1768    6.7014 C.ar    1  UNL1        0.2080
     13 C          14.2280   43.5129    5.4954 C.ar    1  UNL1        0.2080
     14 N          14.8641   43.2790    6.6574 N.ar    1  UNL1       -0.2533
     15 N          15.8391   44.9408    5.5934 N.ar    1  UNL1       -0.1250
     16 N          14.8253   44.5293    4.8460 N.ar    1  UNL1       -0.1250
     17 C           7.0698   41.7573    9.8562 C.ar    1  UNL1        0.0085
     18 C           6.6870   41.4945   11.1762 C.ar    1  UNL1       -0.0018
     19 C           7.6595   41.2883   12.1579 C.ar    1  UNL1        0.0010
     20 C           9.0146   41.3416   11.8200 C.ar    1  UNL1        0.0147
     21 C           9.4070   41.5998   10.4974 C.ar    1  UNL1        0.0503
     22 C           8.4265   41.8059    9.5206 C.ar    1  UNL1        0.0128
     23 C           6.0399   41.9677    8.8011 C.3     1  UNL1        0.1687
     24 C           4.5304   43.5660    8.9836 C.3     1  UNL1        0.1746
     25 O           4.8082   42.2609    9.3877 O.3     1  UNL1       -0.3463
@<TRIPOS>BOND
     1    24    25    1
     2    23    25    1
     3    23    17    1
     4    18    19   ar
     5    20    21   ar
     6    21     3    1
     7     1     5    1
     8     6    10   ar
     9     6    14    1
    10     7     8   ar
    11     9    11    1
    12     9     5   ar
    13    13    14   ar
    14    22    17   ar
    15     3     1   am
    16    14    12   ar
    17    15    16   ar
    18    17    18   ar
    19    19    20   ar
    20    21    22   ar
    21     1     2    2
    22     5    10   ar
    23     6     7   ar
    24     8     9   ar
    25    12    15   ar
    26    13    16   ar
    27     3     4    1
@<TRIPOS>MOLECULE
MolPort-010-722-898 21721278 ChemDiv-J015-0289 MCULE-1637542318 PubChem-22587065 ZINC000021721278 ZINC21721278
 25 27 0 0 0
SMALL
GASTEIGER

@<TRIPOS>ATOM
      1 C          11.6267   40.0556    7.9199 C.2     1  UNL1        0.2678
      2 O          11.3275   38.8512    8.1326 O.2     1  UNL1       -0.2681
      3 N          10.6217   40.9810    7.4780 N.am    1  UNL1       -0.2791
      4 H          10.9179   41.9052    7.3129 H       1  UNL1        0.1552
      5 C          13.0100   40.5475    8.1193 C.ar    1  UNL1        0.1425
      6 C          14.6592   42.1524    7.4586 C.ar    1  UNL1        0.1502
      7 C          15.5782   41.6117    8.3614 C.ar    1  UNL1        0.0380
      8 C          15.2038   40.5265    9.1486 C.ar    1  UNL1        0.0115
      9 C          13.9236   39.9798    9.0422 C.ar    1  UNL1        0.0568
     10 N          13.4149   41.6090    7.3655 N.ar    1  UNL1       -0.2228
     11 BR         13.5400   38.4854   10.1802 Br      1  UNL1       -0.0473
     12 C          16.0748   44.0833    6.7903 C.ar    1  UNL1        0.2080
     13 C          14.3755   43.7249    5.5431 C.ar    1  UNL1        0.2080
     14 N          15.0169   43.2685    6.6341 N.ar    1  UNL1       -0.2533
     15 N          16.0796   45.0150    5.8188 N.ar    1  UNL1       -0.1250
     16 N          15.0265   44.7928    5.0459 N.ar    1  UNL1       -0.1250
     17 C           6.9184   41.0736    7.8874 C.ar    1  UNL1        0.0085
     18 C           6.4980   40.2086    6.8710 C.ar    1  UNL1       -0.0018
     19 C           7.4405   39.5880    6.0473 C.ar    1  UNL1        0.0010
     20 C           8.8032   39.8340    6.2371 C.ar    1  UNL1        0.0147
     21 C           9.2330   40.7041    7.2512 C.ar    1  UNL1        0.0503
     22 C           8.2824   41.3209    8.0721 C.ar    1  UNL1        0.0128
     23 C           5.9202   41.7479    8.7632 C.3     1  UNL1        0.1687
     24 C           3.7993   41.6804    9.3661 C.3     1  UNL1        0.1746
     25 O           4.8923   40.8613    9.0863 O.3     1  UNL1       -0.3463
@<TRIPOS>BOND
     1    24    25    1
     2    23    25    1
     3    23    17    1
     4    18    19   ar
     5    20    21   ar
     6    21     3    1
     7     1     5    1
     8     6    10   ar
     9     6    14    1
    10     7     8   ar
    11     9    11    1
    12     9     5   ar
    13    13    14   ar
    14    22    17   ar
    15     3     1   am
    16    14    12   ar
    17    15    16   ar
    18    17    18   ar
    19    19    20   ar
    20    21    22   ar
    21     1     2    2
    22     5    10   ar
    23     6     7   ar
    24     8     9   ar
    25    12    15   ar
    26    13    16   ar
    27     3     4    1
@<TRIPOS>MOLECULE
MolPort-010-722-898 21721278 ChemDiv-J015-0289 MCULE-1637542318 PubChem-22587065 ZINC000021721278 ZINC21721278
 25 27 0 0 0
SMALL
GASTEIGER

@<TRIPOS>ATOM
      1 C          12.6421   40.3234    8.7119 C.2     1  UNL1        0.2678
      2 O          11.7451   40.7282    9.4971 O.2     1  UNL1       -0.2681
      3 N          12.2852   39.7261    7.4559 N.am    1  UNL1       -0.2791
      4 H          13.0286   39.4143    6.8909 H       1  UNL1        0.1552
      5 C          14.0772   40.4522    9.0574 C.ar    1  UNL1        0.1425
      6 C          16.1124   41.6502    8.6643 C.ar    1  UNL1        0.1502
      7 C          16.7890   40.8457    9.5846 C.ar    1  UNL1        0.0380
      8 C          16.0972   39.8343   10.2450 C.ar    1  UNL1        0.0115
      9 C          14.7403   39.6215    9.9950 C.ar    1  UNL1        0.0568
     10 N          14.7897   41.4310    8.4305 N.ar    1  UNL1       -0.2228
     11 BR         13.9103   38.1933   10.9680 Br      1  UNL1       -0.0473
     12 C          18.0103   43.2034    8.2586 C.ar    1  UNL1        0.2080
     13 C          16.3775   43.3833    6.8900 C.ar    1  UNL1        0.2080
     14 N          16.7988   42.6980    7.9682 N.ar    1  UNL1       -0.2533
     15 N          18.3216   44.1741    7.3795 N.ar    1  UNL1       -0.1250
     16 N          17.3097   44.2855    6.5313 N.ar    1  UNL1       -0.1250
     17 C           9.4973   39.4080    5.0030 C.ar    1  UNL1        0.0085
     18 C           8.4036   39.1741    5.8439 C.ar    1  UNL1       -0.0018
     19 C           8.5848   39.1240    7.2283 C.ar    1  UNL1        0.0010
     20 C           9.8594   39.3046    7.7725 C.ar    1  UNL1        0.0147
     21 C          10.9626   39.5350    6.9358 C.ar    1  UNL1        0.0503
     22 C          10.7720   39.5843    5.5504 C.ar    1  UNL1        0.0128
     23 C           9.3153   39.4523    3.5255 C.3     1  UNL1        0.1687
     24 C           9.9202   37.3740    3.1000 C.3     1  UNL1        0.1746
     25 O           8.8204   38.2303    3.0684 O.3     1  UNL1       -0.3463
@<TRIPOS>BOND
     1    24    25    1
     2    23    25    1
     3    23    17    1
     4    18    19   ar
     5    20    21   ar
     6    21     3    1
     7     1     5    1
     8     6    10   ar
     9     6    14    1
    10     7     8   ar
    11     9    11    1
    12     9     5   ar
    13    13    14   ar
    14    22    17   ar
    15     3     1   am
    16    14    12   ar
    17    15    16   ar
    18    17    18   ar
    19    19    20   ar
    20    21    22   ar
    21     1     2    2
    22     5    10   ar
    23     6     7   ar
    24     8     9   ar
    25    12    15   ar
    26    13    16   ar
    27     3     4    1
@<TRIPOS>MOLECULE
MolPort-010-722-898 21721278 ChemDiv-J015-0289 MCULE-1637542318 PubChem-22587065 ZINC000021721278 ZINC21721278
 25 27 0 0 0
SMALL
GASTEIGER

@<TRIPOS>ATOM
      1 C          11.7986   40.3694    7.3885 C.2     1  UNL1        0.2678
      2 O          11.5921   39.2138    6.9334 O.2     1  UNL1       -0.2681
      3 N          10.7025   41.2787    7.5715 N.am    1  UNL1       -0.2791
      4 H          10.9270   42.1734    7.9156 H       1  UNL1        0.1552
      5 C          13.1645   40.8186    7.7461 C.ar    1  UNL1        0.1425
      6 C          14.8856   42.4370    7.3581 C.ar    1  UNL1        0.1502
      7 C          15.7136   41.8127    8.2943 C.ar    1  UNL1        0.0380
      8 C          15.2570   40.6788    8.9602 C.ar    1  UNL1        0.0115
      9 C          13.9850   40.1661    8.6999 C.ar    1  UNL1        0.0568
     10 N          13.6481   41.9258    7.1143 N.ar    1  UNL1       -0.2228
     11 BR         13.4829   38.5980    9.6820 Br      1  UNL1       -0.0473
     12 C          14.5901   44.4030    5.8660 C.ar    1  UNL1        0.2080
     13 C          16.5638   44.1391    6.6447 C.ar    1  UNL1        0.2080
     14 N          15.3292   43.6048    6.6560 N.ar    1  UNL1       -0.2533
     15 N          15.3544   45.4005    5.3835 N.ar    1  UNL1       -0.1250
     16 N          16.5775   45.2370    5.8662 N.ar    1  UNL1       -0.1250
     17 C           7.0521   41.8843    7.1264 C.ar    1  UNL1        0.0085
     18 C           6.5881   40.6035    6.8066 C.ar    1  UNL1       -0.0018
     19 C           7.4828   39.5325    6.7403 C.ar    1  UNL1        0.0010
     20 C           8.8418   39.7417    6.9906 C.ar    1  UNL1        0.0147
     21 C           9.3163   41.0242    7.3072 C.ar    1  UNL1        0.0503
     22 C           8.4132   42.0911    7.3722 C.ar    1  UNL1        0.0128
     23 C           6.1072   43.0338    7.1888 C.3     1  UNL1        0.1687
     24 C           6.6363   44.6783    8.5607 C.3     1  UNL1        0.1746
     25 O           5.9602   43.4601    8.5093 O.3     1  UNL1       -0.3463
@<TRIPOS>BOND
     1    24    25    1
     2    23    25    1
     3    23    17    1
     4    18    19   ar
     5    20    21   ar
     6    21     3    1
     7     1     5    1
     8     6    10   ar
     9     6    14    1
    10     7     8   ar
    11     9    11    1
    12     9     5   ar
    13    13    14   ar
    14    22    17   ar
    15     3     1   am
    16    14    12   ar
    17    15    16   ar
    18    17    18   ar
    19    19    20   ar
    20    21    22   ar
    21     1     2    2
    22     5    10   ar
    23     6     7   ar
    24     8     9   ar
    25    12    15   ar
    26    13    16   ar
    27     3     4    1
@<TRIPOS>MOLECULE
MolPort-010-722-898 21721278 ChemDiv-J015-0289 MCULE-1637542318 PubChem-22587065 ZINC000021721278 ZINC21721278
 25 27 0 0 0
SMALL
GASTEIGER

@<TRIPOS>ATOM
      1 C          11.8983   41.9559    7.6067 C.2     1  UNL1        0.2678
      2 O          12.1072   42.4956    8.7248 O.2     1  UNL1       -0.2681
      3 N          12.8543   42.1023    6.5455 N.am    1  UNL1       -0.2791
      4 H          12.6295   41.6715    5.6893 H       1  UNL1        0.1552
      5 C          10.6731   41.1609    7.3574 C.ar    1  UNL1        0.1425
      6 C           9.5600   39.6435    5.8772 C.ar    1  UNL1        0.1502
      7 C           8.4495   39.5986    6.7237 C.ar    1  UNL1        0.0380
      8 C           8.4560   40.3457    7.8982 C.ar    1  UNL1        0.0115
      9 C           9.5588   41.1335    8.2328 C.ar    1  UNL1        0.0568
     10 N          10.6279   40.4162    6.2162 N.ar    1  UNL1       -0.2228
     11 BR          9.4355   42.1152    9.8749 Br      1  UNL1       -0.0473
     12 C           9.6479   39.3701    3.4081 C.ar    1  UNL1        0.2080
     13 C           9.5414   37.5488    4.5229 C.ar    1  UNL1        0.2080
     14 N           9.5812   38.8864    4.6607 N.ar    1  UNL1       -0.2533
     15 N           9.6485   38.3531    2.5264 N.ar    1  UNL1       -0.1250
     16 N           9.5826   37.2243    3.2173 N.ar    1  UNL1       -0.1250
     17 C          16.3027   43.0489    7.5958 C.ar    1  UNL1        0.0085
     18 C          16.5641   44.1421    6.7624 C.ar    1  UNL1       -0.0018
     19 C          15.5970   44.5726    5.8506 C.ar    1  UNL1        0.0010
     20 C          14.3697   43.9088    5.7693 C.ar    1  UNL1        0.0147
     21 C          14.1014   42.8084    6.5983 C.ar    1  UNL1        0.0503
     22 C          15.0753   42.3843    7.5092 C.ar    1  UNL1        0.0128
     23 C          17.3318   42.5764    8.5632 C.3     1  UNL1        0.1687
     24 C          17.2441   40.6683    9.6666 C.3     1  UNL1        0.1746
     25 O          17.5344   41.2040    8.4126 O.3     1  UNL1       -0.3463
@<TRIPOS>BOND
     1    24    25    1
     2    23    25    1
     3    23    17    1
     4    18    19   ar
     5    20    21   ar
     6    21     3    1
     7     1     5    1
     8     6    10   ar
     9     6    14    1
    10     7     8   ar
    11     9    11    1
    12     9     5   ar
    13    13    14   ar
    14    22    17   ar
    15     3     1   am
    16    14    12   ar
    17    15    16   ar
    18    17    18   ar
    19    19    20   ar
    20    21    22   ar
    21     1     2    2
    22     5    10   ar
    23     6     7   ar
    24     8     9   ar
    25    12    15   ar
    26    13    16   ar
    27     3     4    1
@<TRIPOS>MOLECULE
MolPort-010-722-898 21721278 ChemDiv-J015-0289 MCULE-1637542318 PubChem-22587065 ZINC000021721278 ZINC21721278
 25 27 0 0 0
SMALL
GASTEIGER

@<TRIPOS>ATOM
      1 C          12.6448   41.0107    8.4416 C.2     1  UNL1        0.2678
      2 O          12.4293   42.1867    8.8360 O.2     1  UNL1       -0.2681
      3 N          13.9768   40.5977    8.0992 N.am    1  UNL1       -0.2791
      4 H          14.0816   39.6715    7.7822 H       1  UNL1        0.1552
      5 C          11.5417   40.0288    8.3225 C.ar    1  UNL1        0.1425
      6 C           9.3416   39.6100    7.4760 C.ar    1  UNL1        0.1502
      7 C           9.3651   38.3134    7.9957 C.ar    1  UNL1        0.0380
      8 C          10.4916   37.8753    8.6861 C.ar    1  UNL1        0.0115
      9 C          11.5905   38.7184    8.8603 C.ar    1  UNL1        0.0568
     10 N          10.4201   40.4209    7.6537 N.ar    1  UNL1       -0.2228
     11 BR         13.0737   37.9919    9.8339 Br      1  UNL1       -0.0473
     12 C           8.0128   41.3226    6.2594 C.ar    1  UNL1        0.2080
     13 C           7.0773   39.4093    6.4489 C.ar    1  UNL1        0.2080
     14 N           8.1952   40.0891    6.7621 N.ar    1  UNL1       -0.2533
     15 N           6.8127   41.3950    5.6541 N.ar    1  UNL1       -0.1250
     16 N           6.2330   40.2092    5.7715 N.ar    1  UNL1       -0.1250
     17 C          16.4635   43.2636    7.3249 C.ar    1  UNL1        0.0085
     18 C          17.4800   42.9802    8.2439 C.ar    1  UNL1       -0.0018
     19 C          17.3472   41.9019    9.1223 C.ar    1  UNL1        0.0010
     20 C          16.1972   41.1085    9.0847 C.ar    1  UNL1        0.0147
     21 C          15.1707   41.3888    8.1692 C.ar    1  UNL1        0.0503
     22 C          15.3123   42.4703    7.2926 C.ar    1  UNL1        0.0128
     23 C          16.5919   44.4175    6.3921 C.3     1  UNL1        0.1687
     24 C          14.7791   45.3820    5.5860 C.3     1  UNL1        0.1746
     25 O          15.6475   44.3129    5.3702 O.3     1  UNL1       -0.3463
@<TRIPOS>BOND
     1    24    25    1
     2    23    25    1
     3    23    17    1
     4    18    19   ar
     5    20    21   ar
     6    21     3    1
     7     1     5    1
     8     6    10   ar
     9     6    14    1
    10     7     8   ar
    11     9    11    1
    12     9     5   ar
    13    13    14   ar
    14    22    17   ar
    15     3     1   am
    16    14    12   ar
    17    15    16   ar
    18    17    18   ar
    19    19    20   ar
    20    21    22   ar
    21     1     2    2
    22     5    10   ar
    23     6     7   ar
    24     8     9   ar
    25    12    15   ar
    26    13    16   ar
    27     3     4    1
