@<TRIPOS>MOLECULE
MolPort-010-903-917 ChemDiv-M535-1350 MCULE-3932823686 PubChem-53146030 ZINC000065166055 ZINC65166055
 30 33 0 0 0
SMALL
GASTEIGER

@<TRIPOS>ATOM
      1 C          12.0283   41.0778    8.6883 C.ar    1  UNL1        0.0670
      2 C          13.2932   40.4842    8.9065 C.ar    1  UNL1        0.0535
      3 C          14.4291   41.0498    8.3071 C.ar    1  UNL1        0.0293
      4 C          14.3284   42.1801    7.4931 C.ar    1  UNL1        0.0515
      5 C          13.0712   42.7542    7.2726 C.ar    1  UNL1        0.0149
      6 C          11.9333   42.2098    7.8683 C.ar    1  UNL1        0.0070
      7 C          13.3814   39.3795   11.1310 C.3     1  UNL1        0.0908
      8 C          14.6105   38.7279   11.7488 C.3     1  UNL1        0.0214
      9 C          14.4301   37.2294   12.0029 C.3     1  UNL1        0.0018
     10 C          13.7241   36.4537   10.8873 C.3     1  UNL1        0.0018
     11 C          14.1283   36.9131    9.4946 C.3     1  UNL1        0.0214
     12 C          13.1694   37.9973    9.0196 C.3     1  UNL1        0.0908
     13 N          13.4326   39.2789    9.6734 N.pl3   1  UNL1       -0.3073
     14 C           9.0824   40.7804   11.1637 C.3     1  UNL1        0.1156
     15 C          10.8078   40.5820    9.3574 C.2     1  UNL1        0.2506
     16 N          10.0947   41.3869   10.3148 N.am    1  UNL1       -0.2672
     17 O          10.3952   39.4207    9.0892 O.2     1  UNL1       -0.2699
     18 C          10.3272   42.8200   10.4559 C.3     1  UNL1        0.1585
     19 C           9.2469   43.5944    9.7775 C.ar    1  UNL1        0.1430
     20 C           8.4851   43.1338    8.7276 C.ar    1  UNL1        0.0379
     21 C           7.6201   44.1752    8.4399 C.ar    1  UNL1        0.0435
     22 C           7.9150   45.1940    9.3307 C.ar    1  UNL1        0.1792
     23 O           8.8933   44.8079   10.1132 O.2     1  UNL1       -0.4530
     24 C          15.6728   44.0050    6.2935 C.2     1  UNL1        0.2256
     25 N          15.5220   42.7167    6.9072 N.am    1  UNL1       -0.2839
     26 O          14.6866   44.7785    6.1572 O.2     1  UNL1       -0.2748
     27 H          16.3209   42.1417    6.9281 H       1  UNL1        0.1549
     28 C          17.0066   44.4121    5.7571 C.3     1  UNL1        0.0768
     29 C          18.0436   44.3770    6.8654 C.3     1  UNL1        0.0096
     30 C          17.9807   43.2523    5.8573 C.3     1  UNL1        0.0096
@<TRIPOS>BOND
     1    14    16    1
     2    18    16    1
     3    18    19    1
     4    19    23   ar
     5    20    21   ar
     6    22    23   ar
     7    15     1    1
     8     1     2   ar
     9     2    13    1
    10     3     4   ar
    11     4    25    1
    12    28    24    1
    13    28    29    1
    14    29    30    1
    15    30    28    1
    16     5     6   ar
    17     7    13    1
    18     7     8    1
    19     8     9    1
    20     9    10    1
    21    10    11    1
    22    11    12    1
    23    12    13    1
    24    16    15   am
    25    25    24   am
    26    19    20   ar
    27    21    22   ar
    28    15    17    2
    29     2     3   ar
    30     4     5   ar
    31    24    26    2
    32     6     1   ar
    33    25    27    1
@<TRIPOS>MOLECULE
MolPort-010-903-917 ChemDiv-M535-1350 MCULE-3932823686 PubChem-53146030 ZINC000065166055 ZINC65166055
 30 33 0 0 0
SMALL
GASTEIGER

@<TRIPOS>ATOM
      1 C          11.7770   40.8795    7.6034 C.ar    1  UNL1        0.0670
      2 C          12.9562   40.4620    8.2633 C.ar    1  UNL1        0.0535
      3 C          14.1569   41.1468    8.0212 C.ar    1  UNL1        0.0293
      4 C          14.2073   42.2240    7.1338 C.ar    1  UNL1        0.0515
      5 C          13.0383   42.6230    6.4757 C.ar    1  UNL1        0.0149
      6 C          11.8345   41.9589    6.7121 C.ar    1  UNL1        0.0070
      7 C          12.7677   39.5251   10.5575 C.3     1  UNL1        0.0908
      8 C          13.8984   38.8814   11.3475 C.3     1  UNL1        0.0214
      9 C          13.6317   37.4130   11.6869 C.3     1  UNL1        0.0018
     10 C          13.0144   36.5795   10.5605 C.3     1  UNL1        0.0018
     11 C          13.5793   36.9196    9.1897 C.3     1  UNL1        0.0214
     12 C          12.7199   37.9961    8.5392 C.3     1  UNL1        0.0908
     13 N          12.9659   39.3137    9.1245 N.pl3   1  UNL1       -0.3073
     14 C           8.0089   40.0641    7.4268 C.3     1  UNL1        0.1156
     15 C          10.4663   40.2556    7.8786 C.2     1  UNL1        0.2506
     16 N           9.3452   40.4383    6.9938 N.am    1  UNL1       -0.2672
     17 O          10.3299   39.5600    8.9219 O.2     1  UNL1       -0.2699
     18 C           9.4962   40.9677    5.6429 C.3     1  UNL1        0.1585
     19 C           9.7090   39.8586    4.6674 C.ar    1  UNL1        0.1430
     20 C          10.8835   39.1579    4.5122 C.ar    1  UNL1        0.0379
     21 C          10.6114   38.2354    3.5169 C.ar    1  UNL1        0.0435
     22 C           9.2953   38.4386    3.1362 C.ar    1  UNL1        0.1792
     23 O           8.7909   39.4178    3.8470 O.2     1  UNL1       -0.4530
     24 C          15.6567   44.2018    6.3828 C.2     1  UNL1        0.2256
     25 N          15.4609   42.8879    6.9253 N.am    1  UNL1       -0.2839
     26 O          14.6823   44.8821    5.9619 O.2     1  UNL1       -0.2748
     27 H          16.2714   42.3907    7.1807 H       1  UNL1        0.1549
     28 C          17.0419   44.7487    6.2629 C.3     1  UNL1        0.0768
     29 C          17.9492   44.0916    7.2876 C.3     1  UNL1        0.0096
     30 C          17.9987   43.6473    5.8436 C.3     1  UNL1        0.0096
@<TRIPOS>BOND
     1    14    16    1
     2    18    16    1
     3    18    19    1
     4    19    23   ar
     5    20    21   ar
     6    22    23   ar
     7    15     1    1
     8     1     2   ar
     9     2    13    1
    10     3     4   ar
    11     4    25    1
    12    28    24    1
    13    28    29    1
    14    29    30    1
    15    30    28    1
    16     5     6   ar
    17     7    13    1
    18     7     8    1
    19     8     9    1
    20     9    10    1
    21    10    11    1
    22    11    12    1
    23    12    13    1
    24    16    15   am
    25    25    24   am
    26    19    20   ar
    27    21    22   ar
    28    15    17    2
    29     2     3   ar
    30     4     5   ar
    31    24    26    2
    32     6     1   ar
    33    25    27    1
@<TRIPOS>MOLECULE
MolPort-010-903-917 ChemDiv-M535-1350 MCULE-3932823686 PubChem-53146030 ZINC000065166055 ZINC65166055
 30 33 0 0 0
SMALL
GASTEIGER

@<TRIPOS>ATOM
      1 C          11.8359   40.3894    7.3239 C.ar    1  UNL1        0.0670
      2 C          12.9900   40.1904    8.1168 C.ar    1  UNL1        0.0535
      3 C          14.0900   41.0464    7.9540 C.ar    1  UNL1        0.0293
      4 C          14.0666   42.0817    7.0171 C.ar    1  UNL1        0.0515
      5 C          12.9252   42.2642    6.2280 C.ar    1  UNL1        0.0149
      6 C          11.8196   41.4279    6.3837 C.ar    1  UNL1        0.0070
      7 C          12.5889   39.2898   10.3982 C.3     1  UNL1        0.0908
      8 C          13.6667   38.9304   11.4111 C.3     1  UNL1        0.0214
      9 C          13.6609   37.4478   11.7913 C.3     1  UNL1        0.0018
     10 C          13.4515   36.4721   10.6298 C.3     1  UNL1        0.0018
     11 C          14.1721   36.8957    9.3589 C.3     1  UNL1        0.0214
     12 C          13.2372   37.7404    8.5028 C.3     1  UNL1        0.0908
     13 N          13.0861   39.0934    9.0374 N.pl3   1  UNL1       -0.3073
     14 C           8.1206   39.3503    7.4290 C.3     1  UNL1        0.1156
     15 C          10.6149   39.5774    7.5055 C.2     1  UNL1        0.2506
     16 N           9.3407   40.0096    6.9932 N.am    1  UNL1       -0.2672
     17 O          10.6959   38.4886    8.1371 O.2     1  UNL1       -0.2699
     18 C           9.2175   41.0842    6.0145 C.3     1  UNL1        0.1585
     19 C           8.2580   42.1214    6.4948 C.ar    1  UNL1        0.1430
     20 C           8.3284   42.7588    7.7127 C.ar    1  UNL1        0.0379
     21 C           7.2530   43.6302    7.7140 C.ar    1  UNL1        0.0435
     22 C           6.6047   43.4626    6.5016 C.ar    1  UNL1        0.1792
     23 O           7.2360   42.5517    5.8014 O.2     1  UNL1       -0.4530
     24 C          15.4486   43.9228    5.8871 C.2     1  UNL1        0.2256
     25 N          15.2184   42.9268    6.8940 N.am    1  UNL1       -0.2839
     26 O          14.6331   44.0892    4.9402 O.2     1  UNL1       -0.2748
     27 H          15.9244   42.8117    7.5705 H       1  UNL1        0.1549
     28 C          16.7015   44.7358    5.9302 C.3     1  UNL1        0.0768
     29 C          17.6086   44.2318    7.0383 C.3     1  UNL1        0.0096
     30 C          17.8977   43.8610    5.6017 C.3     1  UNL1        0.0096
@<TRIPOS>BOND
     1    14    16    1
     2    18    16    1
     3    18    19    1
     4    19    23   ar
     5    20    21   ar
     6    22    23   ar
     7    15     1    1
     8     1     2   ar
     9     2    13    1
    10     3     4   ar
    11     4    25    1
    12    28    24    1
    13    28    29    1
    14    29    30    1
    15    30    28    1
    16     5     6   ar
    17     7    13    1
    18     7     8    1
    19     8     9    1
    20     9    10    1
    21    10    11    1
    22    11    12    1
    23    12    13    1
    24    16    15   am
    25    25    24   am
    26    19    20   ar
    27    21    22   ar
    28    15    17    2
    29     2     3   ar
    30     4     5   ar
    31    24    26    2
    32     6     1   ar
    33    25    27    1
@<TRIPOS>MOLECULE
MolPort-010-903-917 ChemDiv-M535-1350 MCULE-3932823686 PubChem-53146030 ZINC000065166055 ZINC65166055
 30 33 0 0 0
SMALL
GASTEIGER

@<TRIPOS>ATOM
      1 C          14.5169   39.3721   10.0518 C.ar    1  UNL1        0.0670
      2 C          13.7779   40.3541    9.3521 C.ar    1  UNL1        0.0535
      3 C          14.4628   41.3701    8.6681 C.ar    1  UNL1        0.0293
      4 C          15.8579   41.4321    8.6762 C.ar    1  UNL1        0.0515
      5 C          16.5813   40.4633    9.3812 C.ar    1  UNL1        0.0149
      6 C          15.9162   39.4413   10.0587 C.ar    1  UNL1        0.0070
      7 C          11.6237   39.6875    8.3071 C.3     1  UNL1        0.0908
      8 C          10.6264   40.6329    7.6525 C.3     1  UNL1        0.0214
      9 C           9.2630   40.6406    8.3481 C.3     1  UNL1        0.0018
     10 C           9.3059   40.6334    9.8787 C.3     1  UNL1        0.0018
     11 C          10.4190   41.5003   10.4475 C.3     1  UNL1        0.0214
     12 C          11.6696   40.6538   10.6476 C.3     1  UNL1        0.0908
     13 N          12.3429   40.3726    9.3799 N.pl3   1  UNL1       -0.3073
     14 C          12.5109   36.1214   10.6025 C.3     1  UNL1        0.1156
     15 C          13.8597   38.2300   10.7202 C.2     1  UNL1        0.2506
     16 N          13.4012   37.0853    9.9769 N.am    1  UNL1       -0.2672
     17 O          13.6872   38.2720   11.9689 O.2     1  UNL1       -0.2699
     18 C          13.8202   36.8284    8.6034 C.3     1  UNL1        0.1585
     19 C          15.1155   36.0877    8.5817 C.ar    1  UNL1        0.1430
     20 C          15.2460   34.7218    8.6913 C.ar    1  UNL1        0.0379
     21 C          16.6087   34.4932    8.6103 C.ar    1  UNL1        0.0435
     22 C          17.2107   35.7312    8.4586 C.ar    1  UNL1        0.1792
     23 O          16.2843   36.6587    8.4466 O.2     1  UNL1       -0.4530
     24 C          15.8935   43.4005    7.0329 C.2     1  UNL1        0.2256
     25 N          16.5056   42.4915    7.9591 N.am    1  UNL1       -0.2839
     26 O          14.6799   43.2817    6.7126 O.2     1  UNL1       -0.2748
     27 H          17.4701   42.6071    8.1188 H       1  UNL1        0.1549
     28 C          16.7212   44.4687    6.3955 C.3     1  UNL1        0.0768
     29 C          18.1627   44.3524    6.8574 C.3     1  UNL1        0.0096
     30 C          17.7667   43.8425    5.4905 C.3     1  UNL1        0.0096
@<TRIPOS>BOND
     1    14    16    1
     2    18    16    1
     3    18    19    1
     4    19    23   ar
     5    20    21   ar
     6    22    23   ar
     7    15     1    1
     8     1     2   ar
     9     2    13    1
    10     3     4   ar
    11     4    25    1
    12    28    24    1
    13    28    29    1
    14    29    30    1
    15    30    28    1
    16     5     6   ar
    17     7    13    1
    18     7     8    1
    19     8     9    1
    20     9    10    1
    21    10    11    1
    22    11    12    1
    23    12    13    1
    24    16    15   am
    25    25    24   am
    26    19    20   ar
    27    21    22   ar
    28    15    17    2
    29     2     3   ar
    30     4     5   ar
    31    24    26    2
    32     6     1   ar
    33    25    27    1
@<TRIPOS>MOLECULE
MolPort-010-903-917 ChemDiv-M535-1350 MCULE-3932823686 PubChem-53146030 ZINC000065166055 ZINC65166055
 30 33 0 0 0
SMALL
GASTEIGER

@<TRIPOS>ATOM
      1 C          11.7468   40.5546    6.8328 C.ar    1  UNL1        0.0670
      2 C          12.6729   40.2023    7.8419 C.ar    1  UNL1        0.0535
      3 C          13.8422   40.9630    7.9959 C.ar    1  UNL1        0.0293
      4 C          14.1092   42.0526    7.1641 C.ar    1  UNL1        0.0515
      5 C          13.1932   42.3871    6.1602 C.ar    1  UNL1        0.0149
      6 C          12.0217   41.6469    5.9997 C.ar    1  UNL1        0.0070
      7 C          13.6574   38.3264    9.1413 C.3     1  UNL1        0.0908
      8 C          13.5554   36.8506    8.7829 C.3     1  UNL1        0.0214
      9 C          12.8229   36.0258    9.8439 C.3     1  UNL1        0.0018
     10 C          11.5726   36.6804   10.4379 C.3     1  UNL1        0.0018
     11 C          10.7493   37.4370    9.4066 C.3     1  UNL1        0.0214
     12 C          11.1991   38.8918    9.3662 C.3     1  UNL1        0.0908
     13 N          12.4756   39.0458    8.6689 N.pl3   1  UNL1       -0.3073
     14 C           8.0331   39.5889    7.2455 C.3     1  UNL1        0.1156
     15 C          10.4592   39.8476    6.6742 C.2     1  UNL1        0.2506
     16 N           9.2250   40.4157    7.1504 N.am    1  UNL1       -0.2672
     17 O          10.4508   38.7143    6.1204 O.2     1  UNL1       -0.2699
     18 C           9.1063   41.8208    7.5242 C.3     1  UNL1        0.1585
     19 C           9.3979   42.0020    8.9765 C.ar    1  UNL1        0.1430
     20 C          10.4621   42.7109    9.4858 C.ar    1  UNL1        0.0379
     21 C          10.3208   42.6152   10.8593 C.ar    1  UNL1        0.0435
     22 C           9.1852   41.8566   11.0897 C.ar    1  UNL1        0.1792
     23 O           8.6624   41.5089    9.9388 O.2     1  UNL1       -0.4530
     24 C          15.9020   43.7487    6.4672 C.2     1  UNL1        0.2256
     25 N          15.3188   42.7952    7.3671 N.am    1  UNL1       -0.2839
     26 O          15.3957   43.9647    5.3330 O.2     1  UNL1       -0.2748
     27 H          15.7990   42.6342    8.2114 H       1  UNL1        0.1549
     28 C          17.1599   44.4540    6.8577 C.3     1  UNL1        0.0768
     29 C          17.5473   44.0760    8.2761 C.3     1  UNL1        0.0096
     30 C          18.2646   43.4430    7.1057 C.3     1  UNL1        0.0096
@<TRIPOS>BOND
     1    14    16    1
     2    18    16    1
     3    18    19    1
     4    19    23   ar
     5    20    21   ar
     6    22    23   ar
     7    15     1    1
     8     1     2   ar
     9     2    13    1
    10     3     4   ar
    11     4    25    1
    12    28    24    1
    13    28    29    1
    14    29    30    1
    15    30    28    1
    16     5     6   ar
    17     7    13    1
    18     7     8    1
    19     8     9    1
    20     9    10    1
    21    10    11    1
    22    11    12    1
    23    12    13    1
    24    16    15   am
    25    25    24   am
    26    19    20   ar
    27    21    22   ar
    28    15    17    2
    29     2     3   ar
    30     4     5   ar
    31    24    26    2
    32     6     1   ar
    33    25    27    1
@<TRIPOS>MOLECULE
MolPort-010-903-917 ChemDiv-M535-1350 MCULE-3932823686 PubChem-53146030 ZINC000065166055 ZINC65166055
 30 33 0 0 0
SMALL
GASTEIGER

@<TRIPOS>ATOM
      1 C          10.4533   41.7642    7.2108 C.ar    1  UNL1        0.0670
      2 C          11.0476   41.7169    8.4932 C.ar    1  UNL1        0.0535
      3 C          12.4465   41.7394    8.6022 C.ar    1  UNL1        0.0293
      4 C          13.2582   41.7973    7.4672 C.ar    1  UNL1        0.0515
      5 C          12.6621   41.8316    6.2014 C.ar    1  UNL1        0.0149
      6 C          11.2728   41.8192    6.0758 C.ar    1  UNL1        0.0070
      7 C           8.9109   42.1571    9.6837 C.3     1  UNL1        0.0908
      8 C           8.7364   43.0855   10.8772 C.3     1  UNL1        0.0214
      9 C           8.2561   42.3591   12.1359 C.3     1  UNL1        0.0018
     10 C           8.9167   41.0042   12.4054 C.3     1  UNL1        0.0018
     11 C          10.4021   40.9902   12.0780 C.3     1  UNL1        0.0214
     12 C          10.6005   40.5306   10.6392 C.3     1  UNL1        0.0908
     13 N          10.2544   41.5807    9.6817 N.pl3   1  UNL1       -0.3073
     14 C           6.8595   40.8561    6.1362 C.3     1  UNL1        0.1156
     15 C           8.9881   41.8290    7.0317 C.2     1  UNL1        0.2506
     16 N           8.2342   40.6892    6.5785 N.am    1  UNL1       -0.2672
     17 O           8.3928   42.9152    7.2700 O.2     1  UNL1       -0.2699
     18 C           8.7900   39.3405    6.5683 C.3     1  UNL1        0.1585
     19 C           9.3322   39.0085    5.2181 C.ar    1  UNL1        0.1430
     20 C          10.6634   38.8130    4.9279 C.ar    1  UNL1        0.0379
     21 C          10.6872   38.5227    3.5748 C.ar    1  UNL1        0.0435
     22 C           9.3739   38.5625    3.1369 C.ar    1  UNL1        0.1792
     23 O           8.5944   38.8566    4.1491 O.2     1  UNL1       -0.4530
     24 C          15.5593   42.9266    7.3877 C.2     1  UNL1        0.2256
     25 N          14.6817   41.8191    7.6376 N.am    1  UNL1       -0.2839
     26 O          15.1211   44.0061    6.9059 O.2     1  UNL1       -0.2748
     27 H          15.1004   40.9882    7.9593 H       1  UNL1        0.1549
     28 C          17.0228   42.7784    7.6492 C.3     1  UNL1        0.0768
     29 C          17.7790   43.9455    7.0403 C.3     1  UNL1        0.0096
     30 C          17.5095   43.9168    8.5275 C.3     1  UNL1        0.0096
@<TRIPOS>BOND
     1    14    16    1
     2    18    16    1
     3    18    19    1
     4    19    23   ar
     5    20    21   ar
     6    22    23   ar
     7    15     1    1
     8     1     2   ar
     9     2    13    1
    10     3     4   ar
    11     4    25    1
    12    28    24    1
    13    28    29    1
    14    29    30    1
    15    30    28    1
    16     5     6   ar
    17     7    13    1
    18     7     8    1
    19     8     9    1
    20     9    10    1
    21    10    11    1
    22    11    12    1
    23    12    13    1
    24    16    15   am
    25    25    24   am
    26    19    20   ar
    27    21    22   ar
    28    15    17    2
    29     2     3   ar
    30     4     5   ar
    31    24    26    2
    32     6     1   ar
    33    25    27    1
@<TRIPOS>MOLECULE
MolPort-010-903-917 ChemDiv-M535-1350 MCULE-3932823686 PubChem-53146030 ZINC000065166055 ZINC65166055
 30 33 0 0 0
SMALL
GASTEIGER

@<TRIPOS>ATOM
      1 C          11.9664   41.4415    9.1150 C.ar    1  UNL1        0.0670
      2 C          13.1218   40.6274    9.1652 C.ar    1  UNL1        0.0535
      3 C          14.2783   41.0350    8.4827 C.ar    1  UNL1        0.0293
      4 C          14.3026   42.2229    7.7489 C.ar    1  UNL1        0.0515
      5 C          13.1511   43.0166    7.6945 C.ar    1  UNL1        0.0149
      6 C          11.9960   42.6306    8.3748 C.ar    1  UNL1        0.0070
      7 C          13.4816   39.3390   11.2598 C.3     1  UNL1        0.0908
      8 C          14.5991   38.3341   11.5011 C.3     1  UNL1        0.0214
      9 C          14.0837   36.9186   11.7716 C.3     1  UNL1        0.0018
     10 C          12.9229   36.4608   10.8839 C.3     1  UNL1        0.0018
     11 C          13.0578   36.9240    9.4413 C.3     1  UNL1        0.0214
     12 C          12.3474   38.2605    9.2687 C.3     1  UNL1        0.0908
     13 N          13.1180   39.3626    9.8439 N.pl3   1  UNL1       -0.3073
     14 C           8.2733   41.3210   10.2290 C.3     1  UNL1        0.1156
     15 C          10.7459   41.1118    9.8796 C.2     1  UNL1        0.2506
     16 N           9.4329   41.3822    9.3544 N.am    1  UNL1       -0.2672
     17 O          10.8650   40.5946   11.0238 O.2     1  UNL1       -0.2699
     18 C           9.2047   41.6949    7.9479 C.3     1  UNL1        0.1585
     19 C           8.4469   40.5940    7.2838 C.ar    1  UNL1        0.1430
     20 C           8.7898   39.2617    7.3266 C.ar    1  UNL1        0.0379
     21 C           7.8072   38.6240    6.5893 C.ar    1  UNL1        0.0435
     22 C           6.9383   39.6089    6.1498 C.ar    1  UNL1        0.1792
     23 O           7.3557   40.7728    6.5857 O.2     1  UNL1       -0.4530
     24 C          15.7944   43.8494    6.4429 C.2     1  UNL1        0.2256
     25 N          15.5118   42.5911    7.0721 N.am    1  UNL1       -0.2839
     26 O          14.9185   44.7539    6.3780 O.2     1  UNL1       -0.2748
     27 H          16.2218   41.9100    7.0353 H       1  UNL1        0.1549
     28 C          17.1276   44.0695    5.8055 C.3     1  UNL1        0.0768
     29 C          18.1830   44.2908    6.8743 C.3     1  UNL1        0.0096
     30 C          18.0760   42.9479    6.1886 C.3     1  UNL1        0.0096
@<TRIPOS>BOND
     1    14    16    1
     2    18    16    1
     3    18    19    1
     4    19    23   ar
     5    20    21   ar
     6    22    23   ar
     7    15     1    1
     8     1     2   ar
     9     2    13    1
    10     3     4   ar
    11     4    25    1
    12    28    24    1
    13    28    29    1
    14    29    30    1
    15    30    28    1
    16     5     6   ar
    17     7    13    1
    18     7     8    1
    19     8     9    1
    20     9    10    1
    21    10    11    1
    22    11    12    1
    23    12    13    1
    24    16    15   am
    25    25    24   am
    26    19    20   ar
    27    21    22   ar
    28    15    17    2
    29     2     3   ar
    30     4     5   ar
    31    24    26    2
    32     6     1   ar
    33    25    27    1
@<TRIPOS>MOLECULE
MolPort-010-903-917 ChemDiv-M535-1350 MCULE-3932823686 PubChem-53146030 ZINC000065166055 ZINC65166055
 30 33 0 0 0
SMALL
GASTEIGER

@<TRIPOS>ATOM
      1 C          12.4923   40.4050    9.6904 C.ar    1  UNL1        0.0670
      2 C          11.7406   39.3087    9.2075 C.ar    1  UNL1        0.0535
      3 C          10.4527   39.5318    8.6968 C.ar    1  UNL1        0.0293
      4 C           9.8998   40.8139    8.6675 C.ar    1  UNL1        0.0515
      5 C          10.6458   41.8916    9.1585 C.ar    1  UNL1        0.0149
      6 C          11.9312   41.6884    9.6611 C.ar    1  UNL1        0.0070
      7 C          11.3125   36.9090    9.6925 C.3     1  UNL1        0.0908
      8 C          11.8834   36.1268   10.8668 C.3     1  UNL1        0.0214
      9 C          12.7755   34.9612   10.4329 C.3     1  UNL1        0.0018
     10 C          13.7292   35.2596    9.2727 C.3     1  UNL1        0.0018
     11 C          14.3342   36.6535    9.3426 C.3     1  UNL1        0.0214
     12 C          13.4612   37.6257    8.5596 C.3     1  UNL1        0.0908
     13 N          12.2392   37.9651    9.2882 N.pl3   1  UNL1       -0.3073
     14 C          16.3399   40.1041    9.6858 C.3     1  UNL1        0.1156
     15 C          13.8839   40.2497   10.1618 C.2     1  UNL1        0.2506
     16 N          15.0051   40.5359    9.3050 N.am    1  UNL1       -0.2672
     17 O          14.0867   39.8432   11.3385 O.2     1  UNL1       -0.2699
     18 C          14.8638   41.2797    8.0580 C.3     1  UNL1        0.1585
     19 C          15.8856   42.3644    7.9775 C.ar    1  UNL1        0.1430
     20 C          17.1325   42.3194    8.5586 C.ar    1  UNL1        0.0379
     21 C          17.7228   43.5227    8.2132 C.ar    1  UNL1        0.0435
     22 C          16.7973   44.2143    7.4495 C.ar    1  UNL1        0.1792
     23 O          15.7120   43.4883    7.3319 O.2     1  UNL1       -0.4530
     24 C           7.3921   41.3110    8.8688 C.2     1  UNL1        0.2256
     25 N           8.5801   40.9840    8.1335 N.am    1  UNL1       -0.2839
     26 O           7.4135   41.4120   10.1253 O.2     1  UNL1       -0.2748
     27 H           8.4785   40.8640    7.1616 H       1  UNL1        0.1549
     28 C           6.0989   41.4784    8.1395 C.3     1  UNL1        0.0768
     29 C           4.9403   41.1018    9.0454 C.3     1  UNL1        0.0096
     30 C           5.2652   42.5583    8.8051 C.3     1  UNL1        0.0096
@<TRIPOS>BOND
     1    14    16    1
     2    18    16    1
     3    18    19    1
     4    19    23   ar
     5    20    21   ar
     6    22    23   ar
     7    15     1    1
     8     1     2   ar
     9     2    13    1
    10     3     4   ar
    11     4    25    1
    12    28    24    1
    13    28    29    1
    14    29    30    1
    15    30    28    1
    16     5     6   ar
    17     7    13    1
    18     7     8    1
    19     8     9    1
    20     9    10    1
    21    10    11    1
    22    11    12    1
    23    12    13    1
    24    16    15   am
    25    25    24   am
    26    19    20   ar
    27    21    22   ar
    28    15    17    2
    29     2     3   ar
    30     4     5   ar
    31    24    26    2
    32     6     1   ar
    33    25    27    1
@<TRIPOS>MOLECULE
MolPort-010-903-917 ChemDiv-M535-1350 MCULE-3932823686 PubChem-53146030 ZINC000065166055 ZINC65166055
 30 33 0 0 0
SMALL
GASTEIGER

@<TRIPOS>ATOM
      1 C          13.0929   40.9750    9.3943 C.ar    1  UNL1        0.0670
      2 C          14.3667   41.0575    8.7854 C.ar    1  UNL1        0.0535
      3 C          15.4164   40.2692    9.2813 C.ar    1  UNL1        0.0293
      4 C          15.2258   39.4150   10.3697 C.ar    1  UNL1        0.0515
      5 C          13.9652   39.3485   10.9740 C.ar    1  UNL1        0.0149
      6 C          12.9086   40.1186   10.4875 C.ar    1  UNL1        0.0070
      7 C          15.9878   42.4873    7.5589 C.3     1  UNL1        0.0908
      8 C          15.9806   44.0091    7.5279 C.3     1  UNL1        0.0214
      9 C          15.7750   44.5786    6.1222 C.3     1  UNL1        0.0018
     10 C          14.7201   43.8653    5.2718 C.3     1  UNL1        0.0018
     11 C          13.4981   43.4402    6.0718 C.3     1  UNL1        0.0214
     12 C          13.6968   42.0201    6.5860 C.3     1  UNL1        0.0908
     13 N          14.6267   41.9768    7.7142 N.pl3   1  UNL1       -0.3073
     14 C          10.0926   41.9682    7.1792 C.3     1  UNL1        0.1156
     15 C          11.9269   41.7139    8.8674 C.2     1  UNL1        0.2506
     16 N          11.0464   41.1313    7.8885 N.am    1  UNL1       -0.2672
     17 O          11.7124   42.8868    9.2788 O.2     1  UNL1       -0.2699
     18 C          11.0488   39.7036    7.5891 C.3     1  UNL1        0.1585
     19 C          10.5616   39.4599    6.1997 C.ar    1  UNL1        0.1430
     20 C          11.2590   39.7662    5.0533 C.ar    1  UNL1        0.0379
     21 C          10.4315   39.3587    4.0213 C.ar    1  UNL1        0.0435
     22 C           9.2918   38.8356    4.6091 C.ar    1  UNL1        0.1792
     23 O           9.4082   38.9146    5.9125 O.2     1  UNL1       -0.4530
     24 C          17.0006   37.5808   10.1202 C.2     1  UNL1        0.2256
     25 N          16.3333   38.6316   10.8340 N.am    1  UNL1       -0.2839
     26 O          16.5912   37.2026    8.9893 O.2     1  UNL1       -0.2748
     27 H          16.6709   38.8359   11.7359 H       1  UNL1        0.1549
     28 C          18.1631   36.8864   10.7516 C.3     1  UNL1        0.0768
     29 C          18.7740   35.9018    9.7706 C.3     1  UNL1        0.0096
     30 C          19.4405   37.2372   10.0103 C.3     1  UNL1        0.0096
@<TRIPOS>BOND
     1    14    16    1
     2    18    16    1
     3    18    19    1
     4    19    23   ar
     5    20    21   ar
     6    22    23   ar
     7    15     1    1
     8     1     2   ar
     9     2    13    1
    10     3     4   ar
    11     4    25    1
    12    28    24    1
    13    28    29    1
    14    29    30    1
    15    30    28    1
    16     5     6   ar
    17     7    13    1
    18     7     8    1
    19     8     9    1
    20     9    10    1
    21    10    11    1
    22    11    12    1
    23    12    13    1
    24    16    15   am
    25    25    24   am
    26    19    20   ar
    27    21    22   ar
    28    15    17    2
    29     2     3   ar
    30     4     5   ar
    31    24    26    2
    32     6     1   ar
    33    25    27    1
@<TRIPOS>MOLECULE
MolPort-010-903-917 ChemDiv-M535-1350 MCULE-3932823686 PubChem-53146030 ZINC000065166055 ZINC65166055
 30 33 0 0 0
SMALL
GASTEIGER

@<TRIPOS>ATOM
      1 C          13.0313   39.7592    8.6441 C.ar    1  UNL1        0.0670
      2 C          12.7957   40.5705    7.5099 C.ar    1  UNL1        0.0535
      3 C          13.7715   41.4990    7.1159 C.ar    1  UNL1        0.0293
      4 C          14.9632   41.6407    7.8301 C.ar    1  UNL1        0.0515
      5 C          15.1831   40.8423    8.9585 C.ar    1  UNL1        0.0149
      6 C          14.2274   39.9081    9.3582 C.ar    1  UNL1        0.0070
      7 C          10.9010   41.7714    6.4399 C.3     1  UNL1        0.0908
      8 C           9.4619   41.7762    6.9355 C.3     1  UNL1        0.0214
      9 C           8.4803   41.1683    5.9308 C.3     1  UNL1        0.0018
     10 C           8.9638   39.8980    5.2256 C.3     1  UNL1        0.0018
     11 C           9.7377   38.9647    6.1443 C.3     1  UNL1        0.0214
     12 C          11.2239   39.2882    6.0615 C.3     1  UNL1        0.0908
     13 N          11.5543   40.5117    6.7918 N.pl3   1  UNL1       -0.3073
     14 C          10.0638   37.9831   10.3568 C.3     1  UNL1        0.1156
     15 C          12.0828   38.7057    9.0604 C.2     1  UNL1        0.2506
     16 N          10.8352   39.0274    9.7029 N.am    1  UNL1       -0.2672
     17 O          12.3862   37.4983    8.8577 O.2     1  UNL1       -0.2699
     18 C          10.2842   40.3781    9.7040 C.3     1  UNL1        0.1585
     19 C           9.8697   40.7726   11.0823 C.ar    1  UNL1        0.1430
     20 C          10.7287   40.9661   12.1403 C.ar    1  UNL1        0.0379
     21 C           9.9084   41.3257   13.1955 C.ar    1  UNL1        0.0435
     22 C           8.6118   41.3251   12.7085 C.ar    1  UNL1        0.1792
     23 O           8.6310   40.9889   11.4416 O.2     1  UNL1       -0.4530
     24 C          15.6497   43.8882    6.8035 C.2     1  UNL1        0.2256
     25 N          15.9256   42.6043    7.3818 N.am    1  UNL1       -0.2839
     26 O          14.4659   44.2550    6.5720 O.2     1  UNL1       -0.2748
     27 H          16.8741   42.3597    7.4811 H       1  UNL1        0.1549
     28 C          16.7847   44.7800    6.4179 C.3     1  UNL1        0.0768
     29 C          18.0609   44.3185    7.0985 C.3     1  UNL1        0.0096
     30 C          17.8233   43.9900    5.6423 C.3     1  UNL1        0.0096
@<TRIPOS>BOND
     1    14    16    1
     2    18    16    1
     3    18    19    1
     4    19    23   ar
     5    20    21   ar
     6    22    23   ar
     7    15     1    1
     8     1     2   ar
     9     2    13    1
    10     3     4   ar
    11     4    25    1
    12    28    24    1
    13    28    29    1
    14    29    30    1
    15    30    28    1
    16     5     6   ar
    17     7    13    1
    18     7     8    1
    19     8     9    1
    20     9    10    1
    21    10    11    1
    22    11    12    1
    23    12    13    1
    24    16    15   am
    25    25    24   am
    26    19    20   ar
    27    21    22   ar
    28    15    17    2
    29     2     3   ar
    30     4     5   ar
    31    24    26    2
    32     6     1   ar
    33    25    27    1
