@<TRIPOS>MOLECULE
MolPort-004-984-431 CSSS00160433007 MCULE-7777915856 PubChem-45161700
 38 41 0 0 0
SMALL
GASTEIGER

@<TRIPOS>ATOM
      1 C          10.9599   40.5879    7.0408 C.ar    1  UNL1        0.1514
      2 C          12.3032   40.2656    6.8298 C.ar    1  UNL1        0.0760
      3 C          12.3119   39.1661    5.9894 C.ar    1  UNL1        0.0505
      4 C          13.3357   38.3517    5.5155 C.ar    1  UNL1        0.0202
      5 C          12.9822   37.2590    4.7052 C.ar    1  UNL1        0.0643
      6 C          11.6141   37.0131    4.4329 C.ar    1  UNL1        0.1147
      7 C          11.0032   38.8869    5.7059 C.ar    1  UNL1        0.1453
      8 N          10.6414   37.8262    4.9409 N.ar    1  UNL1       -0.2254
      9 N          10.1688   39.7398    6.3285 N.ar    1  UNL1       -0.3040
     10 C          14.0919   42.0741    7.0475 C.2     1  UNL1        0.2495
     11 O          13.5483   42.8407    6.2069 O.2     1  UNL1       -0.2698
     12 N          13.4217   40.8839    7.4801 N.am    1  UNL1       -0.2790
     13 H          13.7595   40.4516    8.2975 H       1  UNL1        0.1552
     14 C          15.3967   42.4319    7.6303 C.ar    1  UNL1        0.0537
     15 C          16.0030   43.6577    7.3166 C.ar    1  UNL1        0.0045
     16 C          17.2430   43.9943    7.8676 C.ar    1  UNL1        0.0001
     17 C          17.8856   43.1079    8.7362 C.ar    1  UNL1        0.0000
     18 C          17.2887   41.8852    9.0540 C.ar    1  UNL1        0.0001
     19 C          16.0489   41.5484    8.5027 C.ar    1  UNL1        0.0045
     20 C          10.4700   41.6821    7.9069 C.2     1  UNL1        0.3587
     21 O           9.4761   42.3738    7.5548 O.2     1  UNL1       -0.2432
     22 C          10.4228   42.4750   10.2379 C.3     1  UNL1        0.2560
     23 O          11.1160   41.9520    9.1151 O.3     1  UNL1       -0.4403
     24 N          14.0215   36.4076    4.2025 N.pl3   1  UNL1       -0.3309
     25 H          13.8521   35.9801    3.3319 H       1  UNL1        0.1469
     26 C          15.3076   36.1011    4.8376 C.3     1  UNL1        0.0939
     27 C          15.1935   34.9865    5.8712 C.3     1  UNL1        0.0237
     28 C          16.4636   35.9180    3.8366 C.3     1  UNL1        0.1047
     29 C          17.7931   36.1131    4.5425 C.3     1  UNL1        0.0310
     30 C          16.3806   36.8967    2.6785 C.3     1  UNL1        0.0310
     31 O          16.4265   34.6198    3.3264 O.3     1  UNL1       -0.3851
     32 H          16.4789   33.9837    4.0568 H       1  UNL1        0.2103
     33 C           8.7112   39.6844    6.2997 C.3     1  UNL1        0.1371
     34 C           8.2133   39.5144    4.8729 C.3     1  UNL1        0.1378
     35 C           8.3318   38.0666    4.4620 C.3     1  UNL1        0.0341
     36 C           8.8011   38.1332    3.0403 C.3     1  UNL1        0.0346
     37 C           8.9195   39.6136    2.7641 C.3     1  UNL1        0.1422
     38 O           8.9815   40.2890    3.9909 O.3     1  UNL1       -0.3543
@<TRIPOS>BOND
     1    22    23    1
     2    20    23    1
     3    20     1    1
     4     2    12    1
     5     2     3   ar
     6    10    14    1
     7    15    16   ar
     8    17    18   ar
     9    19    14   ar
    10     4     5   ar
    11     5    24    1
    12    26    24    1
    13    26    27    1
    14    26    28    1
    15    28    29    1
    16    28    30    1
    17    28    31    1
    18     6     8   ar
    19     7     9   ar
    20     7     3   ar
    21    33     9    1
    22    34    33    1
    23    34    35    1
    24    34    38    1
    25    35    36    1
    26    36    37    1
    27    37    38    1
    28    12    10   am
    29     9     1   ar
    30    20    21    2
    31     1     2   ar
    32    10    11    2
    33    14    15   ar
    34    16    17   ar
    35    18    19   ar
    36     3     4   ar
    37     5     6   ar
    38     7     8   ar
    39    31    32    1
    40    12    13    1
    41    24    25    1
@<TRIPOS>MOLECULE
MolPort-004-984-431 CSSS00160433007 MCULE-7777915856 PubChem-45161700
 38 41 0 0 0
SMALL
GASTEIGER

@<TRIPOS>ATOM
      1 C          11.0190   41.5665    6.2845 C.ar    1  UNL1        0.1514
      2 C          11.5178   41.8711    7.5538 C.ar    1  UNL1        0.0760
      3 C          10.4161   42.0863    8.3632 C.ar    1  UNL1        0.0505
      4 C          10.2854   42.5119    9.6814 C.ar    1  UNL1        0.0202
      5 C           8.9860   42.6841   10.1888 C.ar    1  UNL1        0.0643
      6 C           7.8753   42.4528    9.3407 C.ar    1  UNL1        0.1147
      7 C           9.3148   41.8809    7.5783 C.ar    1  UNL1        0.1453
      8 N           8.0532   42.0597    8.0448 N.ar    1  UNL1       -0.2254
      9 N           9.6584   41.5597    6.3173 N.ar    1  UNL1       -0.3040
     10 C          13.7668   43.0622    7.3511 C.2     1  UNL1        0.2495
     11 O          13.2850   44.0646    6.7573 O.2     1  UNL1       -0.2698
     12 N          12.9010   42.0530    7.8851 N.am    1  UNL1       -0.2790
     13 H          13.2910   41.4283    8.5384 H       1  UNL1        0.1552
     14 C          15.2229   42.9553    7.5469 C.ar    1  UNL1        0.0537
     15 C          15.7641   41.8963    8.2914 C.ar    1  UNL1        0.0045
     16 C          17.1459   41.7984    8.4795 C.ar    1  UNL1        0.0001
     17 C          17.9966   42.7583    7.9246 C.ar    1  UNL1        0.0000
     18 C          17.4660   43.8161    7.1817 C.ar    1  UNL1        0.0001
     19 C          16.0841   43.9144    6.9939 C.ar    1  UNL1        0.0045
     20 C          11.8420   41.2944    5.0860 C.2     1  UNL1        0.3587
     21 O          13.0067   41.7692    4.9946 O.2     1  UNL1       -0.2432
     22 C          11.3921   39.0964    4.0709 C.3     1  UNL1        0.2560
     23 O          11.3226   40.5140    4.0511 O.3     1  UNL1       -0.4403
     24 N           8.8270   43.1191   11.5465 N.pl3   1  UNL1       -0.3309
     25 H           9.2156   43.9951   11.7721 H       1  UNL1        0.1469
     26 C           8.1515   42.4076   12.6368 C.3     1  UNL1        0.0939
     27 C           6.6873   42.1211   12.3236 C.3     1  UNL1        0.0237
     28 C           8.9354   41.1893   13.1596 C.3     1  UNL1        0.1047
     29 C           8.9392   41.1909   14.6774 C.3     1  UNL1        0.0310
     30 C          10.3729   41.1789   12.6705 C.3     1  UNL1        0.0310
     31 O           8.3086   40.0207   12.7257 O.3     1  UNL1       -0.3851
     32 H           7.3882   40.0147   13.0318 H       1  UNL1        0.2103
     33 C           8.7355   41.3434    5.2082 C.3     1  UNL1        0.1371
     34 C           8.1218   39.9544    5.2899 C.3     1  UNL1        0.1378
     35 C           6.8121   40.0203    6.0378 C.3     1  UNL1        0.0341
     36 C           6.8181   38.7833    6.8839 C.3     1  UNL1        0.0346
     37 C           8.1353   38.1218    6.5535 C.3     1  UNL1        0.1422
     38 O           8.9789   39.0801    5.9747 O.3     1  UNL1       -0.3543
@<TRIPOS>BOND
     1    22    23    1
     2    20    23    1
     3    20     1    1
     4     2    12    1
     5     2     3   ar
     6    10    14    1
     7    15    16   ar
     8    17    18   ar
     9    19    14   ar
    10     4     5   ar
    11     5    24    1
    12    26    24    1
    13    26    27    1
    14    26    28    1
    15    28    29    1
    16    28    30    1
    17    28    31    1
    18     6     8   ar
    19     7     9   ar
    20     7     3   ar
    21    33     9    1
    22    34    33    1
    23    34    35    1
    24    34    38    1
    25    35    36    1
    26    36    37    1
    27    37    38    1
    28    12    10   am
    29     9     1   ar
    30    20    21    2
    31     1     2   ar
    32    10    11    2
    33    14    15   ar
    34    16    17   ar
    35    18    19   ar
    36     3     4   ar
    37     5     6   ar
    38     7     8   ar
    39    31    32    1
    40    12    13    1
    41    24    25    1
@<TRIPOS>MOLECULE
MolPort-004-984-431 CSSS00160433007 MCULE-7777915856 PubChem-45161700
 38 41 0 0 0
SMALL
GASTEIGER

@<TRIPOS>ATOM
      1 C          12.2990   38.4734    9.3061 C.ar    1  UNL1        0.1514
      2 C          11.8925   39.6627    8.6952 C.ar    1  UNL1        0.0760
      3 C          13.0399   40.4114    8.4999 C.ar    1  UNL1        0.0505
      4 C          13.2517   41.7043    8.0315 C.ar    1  UNL1        0.0202
      5 C          14.5716   42.1872    8.0143 C.ar    1  UNL1        0.0643
      6 C          15.6168   41.3627    8.4983 C.ar    1  UNL1        0.1147
      7 C          14.0792   39.6526    8.9636 C.ar    1  UNL1        0.1453
      8 N          15.3573   40.1083    8.9721 N.ar    1  UNL1       -0.2254
      9 N          13.6523   38.4730    9.4510 N.ar    1  UNL1       -0.3040
     10 C           9.7881   41.0048    9.2316 C.2     1  UNL1        0.2495
     11 O          10.3810   41.7925   10.0175 O.2     1  UNL1       -0.2698
     12 N          10.5345   40.0572    8.4582 N.am    1  UNL1       -0.2790
     13 H          10.0733   39.6393    7.6954 H       1  UNL1        0.1552
     14 C           8.3273   41.0967    9.0647 C.ar    1  UNL1        0.0537
     15 C           7.7183   40.6573    7.8796 C.ar    1  UNL1        0.0045
     16 C           6.3323   40.7486    7.7213 C.ar    1  UNL1        0.0001
     17 C           5.5452   41.2796    8.7467 C.ar    1  UNL1        0.0000
     18 C           6.1436   41.7194    9.9303 C.ar    1  UNL1        0.0001
     19 C           7.5297   41.6286   10.0885 C.ar    1  UNL1        0.0045
     20 C          11.3978   37.3810    9.7327 C.2     1  UNL1        0.3587
     21 O          10.2973   37.1996    9.1443 O.2     1  UNL1       -0.2432
     22 C          12.1140   35.1906   10.6008 C.3     1  UNL1        0.2560
     23 O          11.7666   36.5531   10.7950 O.3     1  UNL1       -0.4403
     24 N          14.8143   43.5164    7.5324 N.pl3   1  UNL1       -0.3309
     25 H          14.0184   44.0526    7.3126 H       1  UNL1        0.1469
     26 C          16.1128   44.1675    7.3298 C.3     1  UNL1        0.0939
     27 C          17.2281   43.4983    8.1248 C.3     1  UNL1        0.0237
     28 C          16.4552   44.4172    5.8491 C.3     1  UNL1        0.1047
     29 C          15.3827   43.8112    4.9623 C.3     1  UNL1        0.0310
     30 C          17.7979   43.8229    5.4623 C.3     1  UNL1        0.0310
     31 O          16.4917   45.7919    5.6128 O.3     1  UNL1       -0.3851
     32 H          15.6388   46.1846    5.8561 H       1  UNL1        0.2103
     33 C          14.4861   37.4571   10.0844 C.3     1  UNL1        0.1371
     34 C          15.4370   36.8411    9.0701 C.3     1  UNL1        0.1378
     35 C          14.8783   35.5263    8.5821 C.3     1  UNL1        0.0341
     36 C          16.0803   34.6359    8.4913 C.3     1  UNL1        0.0346
     37 C          17.2213   35.5160    8.9444 C.3     1  UNL1        0.1422
     38 O          16.6886   36.5998    9.6562 O.3     1  UNL1       -0.3543
@<TRIPOS>BOND
     1    22    23    1
     2    20    23    1
     3    20     1    1
     4     2    12    1
     5     2     3   ar
     6    10    14    1
     7    15    16   ar
     8    17    18   ar
     9    19    14   ar
    10     4     5   ar
    11     5    24    1
    12    26    24    1
    13    26    27    1
    14    26    28    1
    15    28    29    1
    16    28    30    1
    17    28    31    1
    18     6     8   ar
    19     7     9   ar
    20     7     3   ar
    21    33     9    1
    22    34    33    1
    23    34    35    1
    24    34    38    1
    25    35    36    1
    26    36    37    1
    27    37    38    1
    28    12    10   am
    29     9     1   ar
    30    20    21    2
    31     1     2   ar
    32    10    11    2
    33    14    15   ar
    34    16    17   ar
    35    18    19   ar
    36     3     4   ar
    37     5     6   ar
    38     7     8   ar
    39    31    32    1
    40    12    13    1
    41    24    25    1
@<TRIPOS>MOLECULE
MolPort-004-984-431 CSSS00160433007 MCULE-7777915856 PubChem-45161700
 38 41 0 0 0
SMALL
GASTEIGER

@<TRIPOS>ATOM
      1 C          13.0250   37.8186    9.6658 C.ar    1  UNL1        0.1514
      2 C          12.4448   38.8624    8.9400 C.ar    1  UNL1        0.0760
      3 C          13.4548   39.7779    8.7008 C.ar    1  UNL1        0.0505
      4 C          13.4607   41.0424    8.1203 C.ar    1  UNL1        0.0202
      5 C          14.6792   41.7423    8.0865 C.ar    1  UNL1        0.0643
      6 C          15.8309   41.1555    8.6658 C.ar    1  UNL1        0.1147
      7 C          14.5903   39.2528    9.2539 C.ar    1  UNL1        0.1453
      8 N          15.7712   39.9210    9.2472 N.ar    1  UNL1       -0.2254
      9 N          14.3525   38.0640    9.8383 N.ar    1  UNL1       -0.3040
     10 C          10.4954   39.3951    7.3800 C.2     1  UNL1        0.2495
     11 O          11.2056   39.3775    6.3384 O.2     1  UNL1       -0.2698
     12 N          11.0491   38.9947    8.6395 N.am    1  UNL1       -0.2790
     13 H          10.4138   38.7923    9.3639 H       1  UNL1        0.1552
     14 C           9.0746   39.7744    7.2928 C.ar    1  UNL1        0.0537
     15 C           8.5188   40.6663    8.2223 C.ar    1  UNL1        0.0045
     16 C           7.1694   41.0224    8.1405 C.ar    1  UNL1        0.0001
     17 C           6.3661   40.4895    7.1287 C.ar    1  UNL1        0.0000
     18 C           6.9116   39.6008    6.1988 C.ar    1  UNL1        0.0001
     19 C           8.2609   39.2442    6.2809 C.ar    1  UNL1        0.0045
     20 C          12.3075   36.6283   10.1719 C.2     1  UNL1        0.3587
     21 O          11.0537   36.6517   10.3047 O.2     1  UNL1       -0.2432
     22 C          13.4234   34.5282    9.5329 C.3     1  UNL1        0.2560
     23 O          13.0242   35.4783   10.5089 O.3     1  UNL1       -0.4403
     24 N          14.7099   43.0464    7.4899 N.pl3   1  UNL1       -0.3309
     25 H          14.2839   43.7708    8.0027 H       1  UNL1        0.1469
     26 C          15.3036   43.4238    6.2029 C.3     1  UNL1        0.0939
     27 C          14.2749   43.9965    5.2347 C.3     1  UNL1        0.0237
     28 C          16.5840   44.2693    6.3365 C.3     1  UNL1        0.1047
     29 C          17.6858   43.6764    5.4772 C.3     1  UNL1        0.0310
     30 C          17.0749   44.3446    7.7715 C.3     1  UNL1        0.0310
     31 O          16.3271   45.5642    5.8849 O.3     1  UNL1       -0.3851
     32 H          16.0123   45.5304    4.9680 H       1  UNL1        0.2103
     33 C          15.3232   37.2660   10.5796 C.3     1  UNL1        0.1371
     34 C          16.6588   37.2430    9.8529 C.3     1  UNL1        0.1378
     35 C          16.7712   35.9792    9.0350 C.3     1  UNL1        0.0341
     36 C          18.1981   35.5586    9.2165 C.3     1  UNL1        0.0346
     37 C          18.7759   36.6134   10.1304 C.3     1  UNL1        0.1422
     38 O          17.7173   37.2701   10.7732 O.3     1  UNL1       -0.3543
@<TRIPOS>BOND
     1    22    23    1
     2    20    23    1
     3    20     1    1
     4     2    12    1
     5     2     3   ar
     6    10    14    1
     7    15    16   ar
     8    17    18   ar
     9    19    14   ar
    10     4     5   ar
    11     5    24    1
    12    26    24    1
    13    26    27    1
    14    26    28    1
    15    28    29    1
    16    28    30    1
    17    28    31    1
    18     6     8   ar
    19     7     9   ar
    20     7     3   ar
    21    33     9    1
    22    34    33    1
    23    34    35    1
    24    34    38    1
    25    35    36    1
    26    36    37    1
    27    37    38    1
    28    12    10   am
    29     9     1   ar
    30    20    21    2
    31     1     2   ar
    32    10    11    2
    33    14    15   ar
    34    16    17   ar
    35    18    19   ar
    36     3     4   ar
    37     5     6   ar
    38     7     8   ar
    39    31    32    1
    40    12    13    1
    41    24    25    1
@<TRIPOS>MOLECULE
MolPort-004-984-431 CSSS00160433007 MCULE-7777915856 PubChem-45161700
 38 41 0 0 0
SMALL
GASTEIGER

@<TRIPOS>ATOM
      1 C          14.2177   38.6110    9.5273 C.ar    1  UNL1        0.1514
      2 C          13.8071   39.7657    8.8559 C.ar    1  UNL1        0.0760
      3 C          14.9179   40.5878    8.7811 C.ar    1  UNL1        0.0505
      4 C          15.0970   41.8883    8.3200 C.ar    1  UNL1        0.0202
      5 C          16.3758   42.4580    8.4459 C.ar    1  UNL1        0.0643
      6 C          17.4102   41.7089    9.0584 C.ar    1  UNL1        0.1147
      7 C          15.9445   39.9036    9.3718 C.ar    1  UNL1        0.1453
      8 N          17.1806   40.4437    9.5189 N.ar    1  UNL1       -0.2254
      9 N          15.5425   38.7020    9.8254 N.ar    1  UNL1       -0.3040
     10 C          11.4751   40.7197    9.2674 C.2     1  UNL1        0.2495
     11 O          11.8169   41.3500   10.3044 O.2     1  UNL1       -0.2698
     12 N          12.4623   40.0669    8.4597 N.am    1  UNL1       -0.2790
     13 H          12.1930   39.8012    7.5508 H       1  UNL1        0.1552
     14 C          10.0617   40.7015    8.8525 C.ar    1  UNL1        0.0537
     15 C           9.6482   39.9067    7.7728 C.ar    1  UNL1        0.0045
     16 C           8.3072   39.8934    7.3778 C.ar    1  UNL1        0.0001
     17 C           7.3700   40.6743    8.0596 C.ar    1  UNL1        0.0000
     18 C           7.7733   41.4685    9.1361 C.ar    1  UNL1        0.0001
     19 C           9.1144   41.4823    9.5308 C.ar    1  UNL1        0.0045
     20 C          13.3469   37.4642    9.8653 C.2     1  UNL1        0.3587
     21 O          13.6868   36.6539   10.7697 O.2     1  UNL1       -0.2432
     22 C          10.9144   37.0809    9.8489 C.3     1  UNL1        0.2560
     23 O          12.1478   37.2772    9.1745 O.3     1  UNL1       -0.4403
     24 N          16.5847   43.7966    7.9744 N.pl3   1  UNL1       -0.3309
     25 H          16.6618   44.4948    8.6641 H       1  UNL1        0.1469
     26 C          16.6964   44.2436    6.5819 C.3     1  UNL1        0.0939
     27 C          17.6482   43.3745    5.7679 C.3     1  UNL1        0.0237
     28 C          15.3376   44.4985    5.9032 C.3     1  UNL1        0.1047
     29 C          14.2130   44.0275    6.8072 C.3     1  UNL1        0.0310
     30 C          15.2195   43.7836    4.5687 C.3     1  UNL1        0.0310
     31 O          15.1818   45.8686    5.6900 O.3     1  UNL1       -0.3851
     32 H          15.2551   46.3378    6.5358 H       1  UNL1        0.2103
     33 C          16.3629   37.7490   10.5653 C.3     1  UNL1        0.1371
     34 C          17.3303   37.0409    9.6297 C.3     1  UNL1        0.1378
     35 C          16.5677   36.1073    8.7211 C.3     1  UNL1        0.0341
     36 C          17.4417   34.8927    8.6376 C.3     1  UNL1        0.0346
     37 C          18.6243   35.2333    9.5135 C.3     1  UNL1        0.1422
     38 O          18.2566   36.2853   10.3639 O.3     1  UNL1       -0.3543
@<TRIPOS>BOND
     1    22    23    1
     2    20    23    1
     3    20     1    1
     4     2    12    1
     5     2     3   ar
     6    10    14    1
     7    15    16   ar
     8    17    18   ar
     9    19    14   ar
    10     4     5   ar
    11     5    24    1
    12    26    24    1
    13    26    27    1
    14    26    28    1
    15    28    29    1
    16    28    30    1
    17    28    31    1
    18     6     8   ar
    19     7     9   ar
    20     7     3   ar
    21    33     9    1
    22    34    33    1
    23    34    35    1
    24    34    38    1
    25    35    36    1
    26    36    37    1
    27    37    38    1
    28    12    10   am
    29     9     1   ar
    30    20    21    2
    31     1     2   ar
    32    10    11    2
    33    14    15   ar
    34    16    17   ar
    35    18    19   ar
    36     3     4   ar
    37     5     6   ar
    38     7     8   ar
    39    31    32    1
    40    12    13    1
    41    24    25    1
@<TRIPOS>MOLECULE
MolPort-004-984-431 CSSS00160433007 MCULE-7777915856 PubChem-45161700
 38 41 0 0 0
SMALL
GASTEIGER

@<TRIPOS>ATOM
      1 C          11.5107   38.6788    9.0842 C.ar    1  UNL1        0.1514
      2 C          12.8838   38.6215    8.8315 C.ar    1  UNL1        0.0760
      3 C          13.2831   39.9180    8.5574 C.ar    1  UNL1        0.0505
      4 C          14.4952   40.4619    8.1439 C.ar    1  UNL1        0.0202
      5 C          14.5423   41.8446    7.8954 C.ar    1  UNL1        0.0643
      6 C          13.3626   42.6148    8.0418 C.ar    1  UNL1        0.1147
      7 C          12.1671   40.6993    8.6795 C.ar    1  UNL1        0.1453
      8 N          12.1886   42.0322    8.4263 N.ar    1  UNL1       -0.2254
      9 N          11.0842   39.9688    9.0035 N.ar    1  UNL1       -0.3040
     10 C          14.8824   37.1611    9.4562 C.2     1  UNL1        0.2495
     11 O          15.2008   37.8649   10.4527 O.2     1  UNL1       -0.2698
     12 N          13.6669   37.4235    8.7443 N.am    1  UNL1       -0.2790
     13 H          13.3399   36.7176    8.1410 H       1  UNL1        0.1552
     14 C          15.7347   36.0281    9.0560 C.ar    1  UNL1        0.0537
     15 C          15.1599   34.8059    8.6760 C.ar    1  UNL1        0.0045
     16 C          15.9702   33.7305    8.3000 C.ar    1  UNL1        0.0001
     17 C          17.3608   33.8693    8.3010 C.ar    1  UNL1        0.0000
     18 C          17.9414   35.0831    8.6778 C.ar    1  UNL1        0.0001
     19 C          17.1312   36.1584    9.0543 C.ar    1  UNL1        0.0045
     20 C          10.6495   37.5162    9.3912 C.2     1  UNL1        0.3587
     21 O           9.7100   37.1988    8.6122 O.2     1  UNL1       -0.2432
     22 C          11.7283   35.6381   10.5630 C.3     1  UNL1        0.2560
     23 O          10.8760   36.7730   10.5515 O.3     1  UNL1       -0.4403
     24 N          15.7822   42.4280    7.4713 N.pl3   1  UNL1       -0.3309
     25 H          16.4942   41.7991    7.2128 H       1  UNL1        0.1469
     26 C          16.1103   43.8545    7.3788 C.3     1  UNL1        0.0939
     27 C          17.2412   44.2523    8.3204 C.3     1  UNL1        0.0237
     28 C          16.2864   44.3562    5.9333 C.3     1  UNL1        0.1047
     29 C          15.1448   43.8519    5.0695 C.3     1  UNL1        0.0310
     30 C          17.5979   43.8960    5.3218 C.3     1  UNL1        0.0310
     31 O          16.2565   45.7512    5.9257 O.3     1  UNL1       -0.3851
     32 H          15.4226   46.0588    6.3143 H       1  UNL1        0.2103
     33 C           9.7224   40.4736    9.1431 C.3     1  UNL1        0.1371
     34 C           9.0845   40.6683    7.7765 C.3     1  UNL1        0.1378
     35 C           9.8809   39.9235    6.7326 C.3     1  UNL1        0.0341
     36 C           9.8890   40.8516    5.5560 C.3     1  UNL1        0.0346
     37 C           9.1043   42.0513    6.0322 C.3     1  UNL1        0.1422
     38 O           9.0680   42.0285    7.4334 O.3     1  UNL1       -0.3543
@<TRIPOS>BOND
     1    22    23    1
     2    20    23    1
     3    20     1    1
     4     2    12    1
     5     2     3   ar
     6    10    14    1
     7    15    16   ar
     8    17    18   ar
     9    19    14   ar
    10     4     5   ar
    11     5    24    1
    12    26    24    1
    13    26    27    1
    14    26    28    1
    15    28    29    1
    16    28    30    1
    17    28    31    1
    18     6     8   ar
    19     7     9   ar
    20     7     3   ar
    21    33     9    1
    22    34    33    1
    23    34    35    1
    24    34    38    1
    25    35    36    1
    26    36    37    1
    27    37    38    1
    28    12    10   am
    29     9     1   ar
    30    20    21    2
    31     1     2   ar
    32    10    11    2
    33    14    15   ar
    34    16    17   ar
    35    18    19   ar
    36     3     4   ar
    37     5     6   ar
    38     7     8   ar
    39    31    32    1
    40    12    13    1
    41    24    25    1
@<TRIPOS>MOLECULE
MolPort-004-984-431 CSSS00160433007 MCULE-7777915856 PubChem-45161700
 38 41 0 0 0
SMALL
GASTEIGER

@<TRIPOS>ATOM
      1 C          12.2199   38.9882    9.0913 C.ar    1  UNL1        0.1514
      2 C          13.5545   39.3530    8.8949 C.ar    1  UNL1        0.0760
      3 C          13.5347   40.6385    8.3825 C.ar    1  UNL1        0.0505
      4 C          14.5374   41.4770    7.9054 C.ar    1  UNL1        0.0202
      5 C          14.1558   42.7282    7.3910 C.ar    1  UNL1        0.0643
      6 C          12.7817   43.0693    7.3484 C.ar    1  UNL1        0.1147
      7 C          12.2192   41.0070    8.3159 C.ar    1  UNL1        0.1453
      8 N          11.8302   42.2028    7.8058 N.ar    1  UNL1       -0.2254
      9 N          11.4071   40.0237    8.7457 N.ar    1  UNL1       -0.3040
     10 C          15.6510   38.5754   10.1266 C.2     1  UNL1        0.2495
     11 O          15.3983   39.2430   11.1658 O.2     1  UNL1       -0.2698
     12 N          14.6887   38.4931    9.0682 N.am    1  UNL1       -0.2790
     13 H          14.8179   37.7820    8.3997 H       1  UNL1        0.1552
     14 C          16.9175   37.8301   10.0235 C.ar    1  UNL1        0.0537
     15 C          18.1030   38.3674   10.5474 C.ar    1  UNL1        0.0045
     16 C          19.3048   37.6606   10.4455 C.ar    1  UNL1        0.0001
     17 C          19.3301   36.4115    9.8191 C.ar    1  UNL1        0.0000
     18 C          18.1540   35.8691    9.2949 C.ar    1  UNL1        0.0001
     19 C          16.9522   36.5760    9.3963 C.ar    1  UNL1        0.0045
     20 C          11.7584   37.6768    9.5961 C.2     1  UNL1        0.3587
     21 O          10.6196   37.2389    9.2772 O.2     1  UNL1       -0.2432
     22 C          12.4942   35.5117   10.5099 C.3     1  UNL1        0.2560
     23 O          12.5861   36.9261   10.4334 O.3     1  UNL1       -0.4403
     24 N          15.1729   43.6106    6.8965 N.pl3   1  UNL1       -0.3309
     25 H          14.8821   44.5200    6.6563 H       1  UNL1        0.1469
     26 C          16.5966   43.3126    6.7080 C.3     1  UNL1        0.0939
     27 C          17.1685   43.9767    5.4607 C.3     1  UNL1        0.0237
     28 C          17.4447   43.5171    7.9773 C.3     1  UNL1        0.1047
     29 C          18.8121   44.0586    7.6023 C.3     1  UNL1        0.0310
     30 C          17.6304   42.2276    8.7574 C.3     1  UNL1        0.0310
     31 O          16.8166   44.4505    8.8025 O.3     1  UNL1       -0.3851
     32 H          16.6917   45.2802    8.3157 H       1  UNL1        0.2103
     33 C           9.9484   40.0569    8.7436 C.3     1  UNL1        0.1371
     34 C           9.4014   39.3236    7.5288 C.3     1  UNL1        0.1378
     35 C          10.1627   39.7448    6.2951 C.3     1  UNL1        0.0341
     36 C           9.1052   39.8516    5.2386 C.3     1  UNL1        0.0346
     37 C           7.8290   39.4913    5.9620 C.3     1  UNL1        0.1422
     38 O           8.0462   39.6328    7.3397 O.3     1  UNL1       -0.3543
@<TRIPOS>BOND
     1    22    23    1
     2    20    23    1
     3    20     1    1
     4     2    12    1
     5     2     3   ar
     6    10    14    1
     7    15    16   ar
     8    17    18   ar
     9    19    14   ar
    10     4     5   ar
    11     5    24    1
    12    26    24    1
    13    26    27    1
    14    26    28    1
    15    28    29    1
    16    28    30    1
    17    28    31    1
    18     6     8   ar
    19     7     9   ar
    20     7     3   ar
    21    33     9    1
    22    34    33    1
    23    34    35    1
    24    34    38    1
    25    35    36    1
    26    36    37    1
    27    37    38    1
    28    12    10   am
    29     9     1   ar
    30    20    21    2
    31     1     2   ar
    32    10    11    2
    33    14    15   ar
    34    16    17   ar
    35    18    19   ar
    36     3     4   ar
    37     5     6   ar
    38     7     8   ar
    39    31    32    1
    40    12    13    1
    41    24    25    1
@<TRIPOS>MOLECULE
MolPort-004-984-431 CSSS00160433007 MCULE-7777915856 PubChem-45161700
 38 41 0 0 0
SMALL
GASTEIGER

@<TRIPOS>ATOM
      1 C          12.1632   39.1115    9.0770 C.ar    1  UNL1        0.1514
      2 C          13.5068   39.4165    8.8432 C.ar    1  UNL1        0.0760
      3 C          13.5311   40.7063    8.3420 C.ar    1  UNL1        0.0505
      4 C          14.5567   41.5023    7.8415 C.ar    1  UNL1        0.0202
      5 C          14.2181   42.7744    7.3489 C.ar    1  UNL1        0.0643
      6 C          12.8606   43.1786    7.3506 C.ar    1  UNL1        0.1147
      7 C          12.2326   41.1354    8.3181 C.ar    1  UNL1        0.1453
      8 N          11.8841   42.3524    7.8296 N.ar    1  UNL1       -0.2254
      9 N          11.3891   40.1864    8.7644 N.ar    1  UNL1       -0.3040
     10 C          15.5440   38.4710   10.0569 C.2     1  UNL1        0.2495
     11 O          15.2909   39.0687   11.1378 O.2     1  UNL1       -0.2698
     12 N          14.6048   38.5038    8.9753 N.am    1  UNL1       -0.2790
     13 H          14.7241   37.8399    8.2583 H       1  UNL1        0.1552
     14 C          16.7849   37.6881    9.9248 C.ar    1  UNL1        0.0537
     15 C          16.7851   36.4680    9.2320 C.ar    1  UNL1        0.0045
     16 C          17.9627   35.7244    9.1107 C.ar    1  UNL1        0.0001
     17 C          19.1485   36.1952    9.6810 C.ar    1  UNL1        0.0000
     18 C          19.1571   37.4094   10.3724 C.ar    1  UNL1        0.0001
     19 C          17.9795   38.1528   10.4942 C.ar    1  UNL1        0.0045
     20 C          11.6569   37.8179    9.5850 C.2     1  UNL1        0.3587
     21 O          10.5556   37.3616    9.1737 O.2     1  UNL1       -0.2432
     22 C          12.3624   35.6877   10.5991 C.3     1  UNL1        0.2560
     23 O          12.4001   37.1048   10.5278 O.3     1  UNL1       -0.4403
     24 N          15.2597   43.6139    6.8310 N.pl3   1  UNL1       -0.3309
     25 H          14.9873   44.5101    6.5280 H       1  UNL1        0.1469
     26 C          16.6841   43.2893    6.7015 C.3     1  UNL1        0.0939
     27 C          17.3151   43.9272    5.4691 C.3     1  UNL1        0.0237
     28 C          17.4862   43.4960    8.0000 C.3     1  UNL1        0.1047
     29 C          18.8645   44.0414    7.6736 C.3     1  UNL1        0.0310
     30 C          17.6478   42.2069    8.7861 C.3     1  UNL1        0.0310
     31 O          16.8267   44.4276    8.8025 O.3     1  UNL1       -0.3851
     32 H          16.7168   45.2569    8.3116 H       1  UNL1        0.2103
     33 C           9.9342   40.2864    8.8065 C.3     1  UNL1        0.1371
     34 C           9.5016   41.3222    9.8326 C.3     1  UNL1        0.1378
     35 C          10.0123   40.9296   11.1979 C.3     1  UNL1        0.0341
     36 C           8.8779   41.2672   12.1172 C.3     1  UNL1        0.0346
     37 C           7.8129   41.8150   11.1966 C.3     1  UNL1        0.1422
     38 O           8.1021   41.4003    9.8892 O.3     1  UNL1       -0.3543
@<TRIPOS>BOND
     1    22    23    1
     2    20    23    1
     3    20     1    1
     4     2    12    1
     5     2     3   ar
     6    10    14    1
     7    15    16   ar
     8    17    18   ar
     9    19    14   ar
    10     4     5   ar
    11     5    24    1
    12    26    24    1
    13    26    27    1
    14    26    28    1
    15    28    29    1
    16    28    30    1
    17    28    31    1
    18     6     8   ar
    19     7     9   ar
    20     7     3   ar
    21    33     9    1
    22    34    33    1
    23    34    35    1
    24    34    38    1
    25    35    36    1
    26    36    37    1
    27    37    38    1
    28    12    10   am
    29     9     1   ar
    30    20    21    2
    31     1     2   ar
    32    10    11    2
    33    14    15   ar
    34    16    17   ar
    35    18    19   ar
    36     3     4   ar
    37     5     6   ar
    38     7     8   ar
    39    31    32    1
    40    12    13    1
    41    24    25    1
@<TRIPOS>MOLECULE
MolPort-004-984-431 CSSS00160433007 MCULE-7777915856 PubChem-45161700
 38 41 0 0 0
SMALL
GASTEIGER

@<TRIPOS>ATOM
      1 C          13.4922   39.2908    9.6993 C.ar    1  UNL1        0.1514
      2 C          12.9083   40.2649    8.8851 C.ar    1  UNL1        0.0760
      3 C          11.6884   39.7524    8.4797 C.ar    1  UNL1        0.0505
      4 C          10.7201   40.2160    7.5945 C.ar    1  UNL1        0.0202
      5 C           9.5991   39.4002    7.3632 C.ar    1  UNL1        0.0643
      6 C           9.5152   38.1406    8.0056 C.ar    1  UNL1        0.1147
      7 C          11.5688   38.5259    9.0732 C.ar    1  UNL1        0.1453
      8 N          10.5032   37.7165    8.8479 N.ar    1  UNL1       -0.2254
      9 N          12.6482   38.2300    9.8205 N.ar    1  UNL1       -0.3040
     10 C          13.6836   41.9231    7.1056 C.2     1  UNL1        0.2495
     11 O          12.9996   41.3963    6.1868 O.2     1  UNL1       -0.2698
     12 N          13.5348   41.4829    8.4610 N.am    1  UNL1       -0.2790
     13 H          13.8952   42.0697    9.1646 H       1  UNL1        0.1552
     14 C          14.5985   43.0348    6.7936 C.ar    1  UNL1        0.0537
     15 C          14.1782   44.0920    5.9726 C.ar    1  UNL1        0.0045
     16 C          15.0489   45.1444    5.6744 C.ar    1  UNL1        0.0001
     17 C          16.3458   45.1474    6.1950 C.ar    1  UNL1        0.0000
     18 C          16.7723   44.0985    7.0137 C.ar    1  UNL1        0.0001
     19 C          15.9019   43.0459    7.3115 C.ar    1  UNL1        0.0045
     20 C          14.8249   39.3937   10.3326 C.2     1  UNL1        0.3587
     21 O          14.9602   39.1719   11.5666 O.2     1  UNL1       -0.2432
     22 C          17.2325   39.8656   10.1207 C.3     1  UNL1        0.2560
     23 O          15.9342   39.7441    9.5602 O.3     1  UNL1       -0.4403
     24 N           8.5864   39.8592    6.4569 N.pl3   1  UNL1       -0.3309
     25 H           8.6219   39.4956    5.5427 H       1  UNL1        0.1469
     26 C           7.5040   40.8085    6.7369 C.3     1  UNL1        0.0939
     27 C           6.7686   40.4848    8.0324 C.3     1  UNL1        0.0237
     28 C           7.9248   42.2839    6.6016 C.3     1  UNL1        0.1047
     29 C           8.3944   42.8117    7.9450 C.3     1  UNL1        0.0310
     30 C           6.7892   43.1614    6.1052 C.3     1  UNL1        0.0310
     31 O           8.9862   42.3768    5.7007 O.3     1  UNL1       -0.3851
     32 H           9.7194   41.8201    6.0064 H       1  UNL1        0.2103
     33 C          12.8787   36.9772   10.5319 C.3     1  UNL1        0.1371
     34 C          14.1375   36.2968   10.0170 C.3     1  UNL1        0.1378
     35 C          14.4237   36.7559    8.6077 C.3     1  UNL1        0.0341
     36 C          14.8827   35.5116    7.9100 C.3     1  UNL1        0.0346
     37 C          14.8103   34.4463    8.9786 C.3     1  UNL1        0.1422
     38 O          13.9705   34.9040   10.0035 O.3     1  UNL1       -0.3543
@<TRIPOS>BOND
     1    22    23    1
     2    20    23    1
     3    20     1    1
     4     2    12    1
     5     2     3   ar
     6    10    14    1
     7    15    16   ar
     8    17    18   ar
     9    19    14   ar
    10     4     5   ar
    11     5    24    1
    12    26    24    1
    13    26    27    1
    14    26    28    1
    15    28    29    1
    16    28    30    1
    17    28    31    1
    18     6     8   ar
    19     7     9   ar
    20     7     3   ar
    21    33     9    1
    22    34    33    1
    23    34    35    1
    24    34    38    1
    25    35    36    1
    26    36    37    1
    27    37    38    1
    28    12    10   am
    29     9     1   ar
    30    20    21    2
    31     1     2   ar
    32    10    11    2
    33    14    15   ar
    34    16    17   ar
    35    18    19   ar
    36     3     4   ar
    37     5     6   ar
    38     7     8   ar
    39    31    32    1
    40    12    13    1
    41    24    25    1
@<TRIPOS>MOLECULE
MolPort-004-984-431 CSSS00160433007 MCULE-7777915856 PubChem-45161700
 38 41 0 0 0
SMALL
GASTEIGER

@<TRIPOS>ATOM
      1 C          14.7105   38.6608    9.6308 C.ar    1  UNL1        0.1514
      2 C          13.9036   39.7028    9.1663 C.ar    1  UNL1        0.0760
      3 C          12.6167   39.1979    9.0995 C.ar    1  UNL1        0.0505
      4 C          11.4213   39.7278    8.6240 C.ar    1  UNL1        0.0202
      5 C          10.2822   38.9048    8.6529 C.ar    1  UNL1        0.0643
      6 C          10.4004   37.5755    9.1275 C.ar    1  UNL1        0.1147
      7 C          12.6858   37.9059    9.5433 C.ar    1  UNL1        0.1453
      8 N          11.6013   37.0906    9.5614 N.ar    1  UNL1       -0.2254
      9 N          13.9442   37.5629    9.8753 N.ar    1  UNL1       -0.3040
     10 C          14.0729   41.5959    7.4618 C.2     1  UNL1        0.2495
     11 O          13.1227   41.1654    6.7537 O.2     1  UNL1       -0.2698
     12 N          14.3689   40.9848    8.7236 N.am    1  UNL1       -0.2790
     13 H          14.9437   41.4908    9.3424 H       1  UNL1        0.1552
     14 C          14.8465   42.7680    7.0172 C.ar    1  UNL1        0.0537
     15 C          16.1619   42.9628    7.4646 C.ar    1  UNL1        0.0045
     16 C          16.8935   44.0776    7.0447 C.ar    1  UNL1        0.0001
     17 C          16.3153   45.0057    6.1743 C.ar    1  UNL1        0.0000
     18 C          15.0059   44.8192    5.7238 C.ar    1  UNL1        0.0001
     19 C          14.2741   43.7046    6.1440 C.ar    1  UNL1        0.0045
     20 C          16.1747   38.7364    9.8262 C.2     1  UNL1        0.3587
     21 O          16.8333   39.6890    9.3272 O.2     1  UNL1       -0.2432
     22 C          18.1060   37.2522   10.1885 C.3     1  UNL1        0.2560
     23 O          16.8280   37.7449   10.5610 O.3     1  UNL1       -0.4403
     24 N           9.0379   39.4311    8.1707 N.pl3   1  UNL1       -0.3309
     25 H           8.2797   39.4018    8.7980 H       1  UNL1        0.1469
     26 C           8.7664   40.0078    6.8498 C.3     1  UNL1        0.0939
     27 C           9.0733   39.0346    5.7173 C.3     1  UNL1        0.0237
     28 C           7.3881   40.6866    6.7427 C.3     1  UNL1        0.1047
     29 C           6.9446   41.1725    8.1105 C.3     1  UNL1        0.0310
     30 C           6.3276   39.7490    6.1932 C.3     1  UNL1        0.0310
     31 O           7.4864   41.7924    5.8973 O.3     1  UNL1       -0.3851
     32 H           8.1615   42.4003    6.2373 H       1  UNL1        0.2103
     33 C          14.3825   36.2437   10.3181 C.3     1  UNL1        0.1371
     34 C          14.5864   35.3227    9.1252 C.3     1  UNL1        0.1378
     35 C          13.6979   34.1100    9.2612 C.3     1  UNL1        0.0341
     36 C          14.5582   32.9783    8.7867 C.3     1  UNL1        0.0346
     37 C          15.8678   33.6408    8.4292 C.3     1  UNL1        0.1422
     38 O          15.9194   34.8900    9.0632 O.3     1  UNL1       -0.3543
@<TRIPOS>BOND
     1    22    23    1
     2    20    23    1
     3    20     1    1
     4     2    12    1
     5     2     3   ar
     6    10    14    1
     7    15    16   ar
     8    17    18   ar
     9    19    14   ar
    10     4     5   ar
    11     5    24    1
    12    26    24    1
    13    26    27    1
    14    26    28    1
    15    28    29    1
    16    28    30    1
    17    28    31    1
    18     6     8   ar
    19     7     9   ar
    20     7     3   ar
    21    33     9    1
    22    34    33    1
    23    34    35    1
    24    34    38    1
    25    35    36    1
    26    36    37    1
    27    37    38    1
    28    12    10   am
    29     9     1   ar
    30    20    21    2
    31     1     2   ar
    32    10    11    2
    33    14    15   ar
    34    16    17   ar
    35    18    19   ar
    36     3     4   ar
    37     5     6   ar
    38     7     8   ar
    39    31    32    1
    40    12    13    1
    41    24    25    1
