@<TRIPOS>MOLECULE
MolPort-007-723-734 9405089 ChemDiv-E157-8413 MCULE-2668155408 PubChem-22518212 ZINC000009405089 ZINC09405089
 28 30 0 0 0
SMALL
GASTEIGER

@<TRIPOS>ATOM
      1 C          11.7240   40.4398    9.5907 C.ar    1  UNL1        0.2593
      2 C           9.5804   40.8958   10.5373 C.ar    1  UNL1        0.1896
      3 N          11.7878   40.8091   10.8886 N.ar    1  UNL1       -0.1187
      4 N          10.5928   41.0652   11.4172 N.ar    1  UNL1       -0.1239
      5 S          10.1372   40.4063    9.0269 S.2     1  UNL1       -0.0102
      6 C           7.1818   41.4413    9.8980 C.2     1  UNL1        0.2509
      7 N           8.1988   41.0988   10.8489 N.am    1  UNL1       -0.2592
      8 O           7.4692   41.5751    8.6769 O.2     1  UNL1       -0.2698
      9 H           7.9253   40.9952   11.7889 H       1  UNL1        0.1571
     10 C           5.7930   41.6381   10.3498 C.ar    1  UNL1        0.0537
     11 C           4.9812   42.6077    9.7433 C.ar    1  UNL1        0.0042
     12 C           3.6625   42.7928   10.1690 C.ar    1  UNL1       -0.0041
     13 C           3.1462   42.0101   11.2048 C.ar    1  UNL1       -0.0218
     14 C           1.7454   42.2089   11.6593 C.3     1  UNL1        0.0310
     15 C           3.9484   41.0436   11.8163 C.ar    1  UNL1       -0.0041
     16 C           5.2668   40.8579   11.3902 C.ar    1  UNL1        0.0042
     17 S          13.1261   40.0105    8.6327 S.O2    1  UNL1        0.1010
     18 O          14.3023   39.8226    9.5499 O.2     1  UNL1       -0.1477
     19 O          12.8715   38.7232    7.8995 O.2     1  UNL1       -0.1477
     20 C          12.4472   41.5574    6.4730 C.3     1  UNL1        0.1392
     21 N          13.4575   41.2717    7.4827 N.pl3   1  UNL1       -0.1870
     22 C          14.7009   42.0020    7.5000 C.ar    1  UNL1        0.0690
     23 C          14.8865   43.1155    6.6624 C.ar    1  UNL1        0.0170
     24 C          16.0925   43.8216    6.6719 C.ar    1  UNL1        0.0127
     25 C          17.1279   43.4229    7.5198 C.ar    1  UNL1        0.0578
     26 C          16.9574   42.3198    8.3590 C.ar    1  UNL1        0.0127
     27 C          15.7511   41.6143    8.3485 C.ar    1  UNL1        0.0170
     28 CL         18.6383   44.3066    7.5322 Cl      1  UNL1       -0.0822
@<TRIPOS>BOND
     1    20    21    1
     2    23    24   ar
     3    25    28    1
     4    25    26   ar
     5    27    22   ar
     6     1     5   ar
     7     2     7    1
     8     2     5   ar
     9     6    10    1
    10    11    12   ar
    11    13    15   ar
    12    14    13    1
    13    16    10   ar
    14    21    22    1
    15     3     4   ar
    16     7     6   am
    17    17    21    1
    18    17     1    1
    19    22    23   ar
    20    24    25   ar
    21    26    27   ar
    22     1     3   ar
    23     2     4   ar
    24     6     8    2
    25    10    11   ar
    26    12    13   ar
    27    15    16   ar
    28    17    18    2
    29    17    19    2
    30     7     9    1
@<TRIPOS>MOLECULE
MolPort-007-723-734 9405089 ChemDiv-E157-8413 MCULE-2668155408 PubChem-22518212 ZINC000009405089 ZINC09405089
 28 30 0 0 0
SMALL
GASTEIGER

@<TRIPOS>ATOM
      1 C           8.1472   39.4407    6.9623 C.ar    1  UNL1        0.2593
      2 C          10.2196   38.6022    7.7996 C.ar    1  UNL1        0.1896
      3 N           8.3068   38.1166    6.7466 N.ar    1  UNL1       -0.1187
      4 N           9.4631   37.6482    7.2118 N.ar    1  UNL1       -0.1239
      5 S           9.4673   40.1068    7.7690 S.2     1  UNL1       -0.0102
      6 C          12.6660   39.1782    8.1780 C.2     1  UNL1        0.2509
      7 N          11.5030   38.3658    8.3862 N.am    1  UNL1       -0.2592
      8 O          12.6069   40.1994    7.4396 O.2     1  UNL1       -0.2698
      9 H          11.5947   37.5848    8.9786 H       1  UNL1        0.1571
     10 C          13.9372   38.8183    8.8306 C.ar    1  UNL1        0.0537
     11 C          14.3264   37.4746    8.9314 C.ar    1  UNL1        0.0042
     12 C          15.5338   37.1323    9.5473 C.ar    1  UNL1       -0.0041
     13 C          16.3606   38.1312   10.0677 C.ar    1  UNL1       -0.0218
     14 C          17.6427   37.7671   10.7250 C.3     1  UNL1        0.0310
     15 C          15.9798   39.4720    9.9740 C.ar    1  UNL1       -0.0041
     16 C          14.7728   39.8144    9.3574 C.ar    1  UNL1        0.0042
     17 S           6.7176   40.3364    6.4915 S.O2    1  UNL1        0.1010
     18 O           7.0891   41.3097    5.4076 O.2     1  UNL1       -0.1477
     19 O           5.6737   39.3940    5.9609 O.2     1  UNL1       -0.1477
     20 C           4.6499   41.0871    8.1283 C.3     1  UNL1        0.1392
     21 N           6.0796   41.1860    7.8678 N.pl3   1  UNL1       -0.1870
     22 C           6.9239   41.9886    8.7179 C.ar    1  UNL1        0.0690
     23 C           7.2502   41.5546   10.0145 C.ar    1  UNL1        0.0170
     24 C           8.0628   42.3330   10.8433 C.ar    1  UNL1        0.0127
     25 C           8.5597   43.5550   10.3853 C.ar    1  UNL1        0.0578
     26 C           8.2456   43.9981    9.0988 C.ar    1  UNL1        0.0127
     27 C           7.4327   43.2192    8.2709 C.ar    1  UNL1        0.0170
     28 CL          9.5773   44.5301   11.4226 Cl      1  UNL1       -0.0822
@<TRIPOS>BOND
     1    20    21    1
     2    23    24   ar
     3    25    28    1
     4    25    26   ar
     5    27    22   ar
     6     1     5   ar
     7     2     7    1
     8     2     5   ar
     9     6    10    1
    10    11    12   ar
    11    13    15   ar
    12    14    13    1
    13    16    10   ar
    14    21    22    1
    15     3     4   ar
    16     7     6   am
    17    17    21    1
    18    17     1    1
    19    22    23   ar
    20    24    25   ar
    21    26    27   ar
    22     1     3   ar
    23     2     4   ar
    24     6     8    2
    25    10    11   ar
    26    12    13   ar
    27    15    16   ar
    28    17    18    2
    29    17    19    2
    30     7     9    1
@<TRIPOS>MOLECULE
MolPort-007-723-734 9405089 ChemDiv-E157-8413 MCULE-2668155408 PubChem-22518212 ZINC000009405089 ZINC09405089
 28 30 0 0 0
SMALL
GASTEIGER

@<TRIPOS>ATOM
      1 C           9.4130   40.5166    6.8947 C.ar    1  UNL1        0.2593
      2 C          11.7637   40.9031    7.0484 C.ar    1  UNL1        0.1896
      3 N          10.1495   39.4614    6.4835 N.ar    1  UNL1       -0.1187
      4 N          11.4608   39.6765    6.5673 N.ar    1  UNL1       -0.1239
      5 S          10.3827   41.7969    7.4019 S.2     1  UNL1       -0.0102
      6 C          13.5931   42.6456    6.7709 C.2     1  UNL1        0.2509
      7 N          13.0962   41.3864    7.2436 N.am    1  UNL1       -0.2592
      8 O          12.8370   43.4330    6.1386 O.2     1  UNL1       -0.2698
      9 H          13.7201   40.8097    7.7409 H       1  UNL1        0.1571
     10 C          14.9949   43.0219    7.0255 C.ar    1  UNL1        0.0537
     11 C          15.5504   44.1488    6.4022 C.ar    1  UNL1        0.0042
     12 C          16.8792   44.5086    6.6457 C.ar    1  UNL1       -0.0041
     13 C          17.6625   43.7436    7.5137 C.ar    1  UNL1       -0.0218
     14 C          19.0758   44.1244    7.7702 C.3     1  UNL1        0.0310
     15 C          17.1181   42.6181    8.1369 C.ar    1  UNL1       -0.0041
     16 C          15.7892   42.2586    7.8941 C.ar    1  UNL1        0.0042
     17 S           7.6617   40.5245    6.9298 S.O2    1  UNL1        0.1010
     18 O           7.1532   41.1562    5.6640 O.2     1  UNL1       -0.1477
     19 O           7.1442   39.1156    7.0114 O.2     1  UNL1       -0.1477
     20 C           7.6932   41.1073    9.6089 C.3     1  UNL1        0.1392
     21 N           7.1082   41.4217    8.3124 N.pl3   1  UNL1       -0.1870
     22 C           6.0835   42.4299    8.1978 C.ar    1  UNL1        0.0690
     23 C           6.2654   43.5398    7.3545 C.ar    1  UNL1        0.0170
     24 C           5.2772   44.5220    7.2460 C.ar    1  UNL1        0.0127
     25 C           4.0944   44.4060    7.9792 C.ar    1  UNL1        0.0578
     26 C           3.8989   43.3080    8.8195 C.ar    1  UNL1        0.0127
     27 C           4.8878   42.3265    8.9276 C.ar    1  UNL1        0.0170
     28 CL          2.8566   45.6356    7.8437 Cl      1  UNL1       -0.0822
@<TRIPOS>BOND
     1    20    21    1
     2    23    24   ar
     3    25    28    1
     4    25    26   ar
     5    27    22   ar
     6     1     5   ar
     7     2     7    1
     8     2     5   ar
     9     6    10    1
    10    11    12   ar
    11    13    15   ar
    12    14    13    1
    13    16    10   ar
    14    21    22    1
    15     3     4   ar
    16     7     6   am
    17    17    21    1
    18    17     1    1
    19    22    23   ar
    20    24    25   ar
    21    26    27   ar
    22     1     3   ar
    23     2     4   ar
    24     6     8    2
    25    10    11   ar
    26    12    13   ar
    27    15    16   ar
    28    17    18    2
    29    17    19    2
    30     7     9    1
@<TRIPOS>MOLECULE
MolPort-007-723-734 9405089 ChemDiv-E157-8413 MCULE-2668155408 PubChem-22518212 ZINC000009405089 ZINC09405089
 28 30 0 0 0
SMALL
GASTEIGER

@<TRIPOS>ATOM
      1 C          11.7417   40.8136    9.3044 C.ar    1  UNL1        0.2593
      2 C           9.5784   41.4836   10.0593 C.ar    1  UNL1        0.1896
      3 N          11.6644   42.1337    9.5807 N.ar    1  UNL1       -0.1187
      4 N          10.4578   42.5088   10.0004 N.ar    1  UNL1       -0.1239
      5 S          10.2775   40.0292    9.5832 S.2     1  UNL1       -0.0102
      6 C           7.0742   41.5001    9.6246 C.2     1  UNL1        0.2509
      7 N           8.2177   41.6117   10.4826 N.am    1  UNL1       -0.2592
      8 O           7.2206   41.2593    8.3949 O.2     1  UNL1       -0.2698
      9 H           8.0537   41.7902   11.4368 H       1  UNL1        0.1571
     10 C           5.7207   41.6675   10.1827 C.ar    1  UNL1        0.0537
     11 C           5.2885   40.8626   11.2468 C.ar    1  UNL1        0.0042
     12 C           4.0059   41.0229   11.7792 C.ar    1  UNL1       -0.0041
     13 C           3.1457   41.9888   11.2508 C.ar    1  UNL1       -0.0218
     14 C           1.7811   42.1572   11.8148 C.3     1  UNL1        0.0310
     15 C           3.5669   42.7933   10.1892 C.ar    1  UNL1       -0.0041
     16 C           4.8497   42.6336    9.6573 C.ar    1  UNL1        0.0042
     17 S          13.2051   40.0186    8.7616 S.O2    1  UNL1        0.1010
     18 O          12.9180   39.2994    7.4731 O.2     1  UNL1       -0.1477
     19 O          14.2826   41.0382    8.5189 O.2     1  UNL1       -0.1477
     20 C          13.8309   39.3584   11.3482 C.3     1  UNL1        0.1392
     21 N          13.7417   38.8911    9.9714 N.pl3   1  UNL1       -0.1870
     22 C          14.1154   37.5402    9.6321 C.ar    1  UNL1        0.0690
     23 C          15.3503   37.2748    9.0152 C.ar    1  UNL1        0.0170
     24 C          15.7129   35.9676    8.6792 C.ar    1  UNL1        0.0127
     25 C          14.8449   34.9095    8.9565 C.ar    1  UNL1        0.0578
     26 C          13.6156   35.1577    9.5708 C.ar    1  UNL1        0.0127
     27 C          13.2539   36.4652    9.9062 C.ar    1  UNL1        0.0170
     28 CL         15.2983   33.2724    8.5360 Cl      1  UNL1       -0.0822
@<TRIPOS>BOND
     1    20    21    1
     2    23    24   ar
     3    25    28    1
     4    25    26   ar
     5    27    22   ar
     6     1     5   ar
     7     2     7    1
     8     2     5   ar
     9     6    10    1
    10    11    12   ar
    11    13    15   ar
    12    14    13    1
    13    16    10   ar
    14    21    22    1
    15     3     4   ar
    16     7     6   am
    17    17    21    1
    18    17     1    1
    19    22    23   ar
    20    24    25   ar
    21    26    27   ar
    22     1     3   ar
    23     2     4   ar
    24     6     8    2
    25    10    11   ar
    26    12    13   ar
    27    15    16   ar
    28    17    18    2
    29    17    19    2
    30     7     9    1
@<TRIPOS>MOLECULE
MolPort-007-723-734 9405089 ChemDiv-E157-8413 MCULE-2668155408 PubChem-22518212 ZINC000009405089 ZINC09405089
 28 30 0 0 0
SMALL
GASTEIGER

@<TRIPOS>ATOM
      1 C          11.9706   40.7494    9.1837 C.ar    1  UNL1        0.2593
      2 C           9.7542   41.3609    9.8259 C.ar    1  UNL1        0.1896
      3 N          11.7617   42.0838    9.1546 N.ar    1  UNL1       -0.1187
      4 N          10.5253   42.4259    9.5111 N.ar    1  UNL1       -0.1239
      5 S          10.5944   39.9112    9.6739 S.2     1  UNL1       -0.0102
      6 C           7.2947   41.8492    9.4111 C.2     1  UNL1        0.2509
      7 N           8.3895   41.4496   10.2464 N.am    1  UNL1       -0.2592
      8 O           7.4908   42.1450    8.2005 O.2     1  UNL1       -0.2698
      9 H           8.1864   41.2185   11.1815 H       1  UNL1        0.1571
     10 C           5.9328   41.9144    9.9701 C.ar    1  UNL1        0.0537
     11 C           4.9264   42.6279    9.3029 C.ar    1  UNL1        0.0042
     12 C           3.6332   42.6876    9.8306 C.ar    1  UNL1       -0.0041
     13 C           3.3371   42.0348   11.0299 C.ar    1  UNL1       -0.0218
     14 C           1.9632   42.1007   11.5924 C.3     1  UNL1        0.0310
     15 C           4.3340   41.3239   11.7026 C.ar    1  UNL1       -0.0041
     16 C           5.6269   41.2635   11.1746 C.ar    1  UNL1        0.0042
     17 S          13.5042   39.9973    8.7958 S.O2    1  UNL1        0.1010
     18 O          13.2651   38.8849    7.8133 O.2     1  UNL1       -0.1477
     19 O          14.4268   41.0066    8.1716 O.2     1  UNL1       -0.1477
     20 C          13.4955   39.5107   11.4941 C.3     1  UNL1        0.1392
     21 N          14.2323   39.3714   10.2453 N.pl3   1  UNL1       -0.1870
     22 C          15.5359   38.7551   10.2304 C.ar    1  UNL1        0.0690
     23 C          15.7191   37.4863    9.6537 C.ar    1  UNL1        0.0170
     24 C          16.9797   36.8832    9.6433 C.ar    1  UNL1        0.0127
     25 C          18.0732   37.5421   10.2092 C.ar    1  UNL1        0.0578
     26 C          17.9069   38.8039   10.7840 C.ar    1  UNL1        0.0127
     27 C          16.6458   39.4059   10.7941 C.ar    1  UNL1        0.0170
     28 CL         19.6521   36.7876   10.1965 Cl      1  UNL1       -0.0822
@<TRIPOS>BOND
     1    20    21    1
     2    23    24   ar
     3    25    28    1
     4    25    26   ar
     5    27    22   ar
     6     1     5   ar
     7     2     7    1
     8     2     5   ar
     9     6    10    1
    10    11    12   ar
    11    13    15   ar
    12    14    13    1
    13    16    10   ar
    14    21    22    1
    15     3     4   ar
    16     7     6   am
    17    17    21    1
    18    17     1    1
    19    22    23   ar
    20    24    25   ar
    21    26    27   ar
    22     1     3   ar
    23     2     4   ar
    24     6     8    2
    25    10    11   ar
    26    12    13   ar
    27    15    16   ar
    28    17    18    2
    29    17    19    2
    30     7     9    1
@<TRIPOS>MOLECULE
MolPort-007-723-734 9405089 ChemDiv-E157-8413 MCULE-2668155408 PubChem-22518212 ZINC000009405089 ZINC09405089
 28 30 0 0 0
SMALL
GASTEIGER

@<TRIPOS>ATOM
      1 C           8.8268   40.8444    7.1904 C.ar    1  UNL1        0.2593
      2 C          11.1605   41.1631    7.5797 C.ar    1  UNL1        0.1896
      3 N           9.4807   39.6915    7.4517 N.ar    1  UNL1       -0.1187
      4 N          10.7827   39.8679    7.6675 N.ar    1  UNL1       -0.1239
      5 S           9.8623   42.1724    7.2235 S.2     1  UNL1       -0.0102
      6 C          13.3112   42.2453    6.7654 C.2     1  UNL1        0.2509
      7 N          12.4999   41.6273    7.7733 N.am    1  UNL1       -0.2592
      8 O          12.8549   42.4296    5.6037 O.2     1  UNL1       -0.2698
      9 H          12.8952   41.5135    8.6677 H       1  UNL1        0.1571
     10 C          14.6855   42.6676    7.0886 C.ar    1  UNL1        0.0537
     11 C          15.2323   43.8148    6.4952 C.ar    1  UNL1        0.0042
     12 C          16.5347   44.2181    6.8037 C.ar    1  UNL1       -0.0041
     13 C          17.3003   43.4768    7.7073 C.ar    1  UNL1       -0.0218
     14 C          18.6859   43.9040    8.0330 C.3     1  UNL1        0.0310
     15 C          16.7647   42.3314    8.3012 C.ar    1  UNL1       -0.0041
     16 C          15.4620   41.9284    7.9934 C.ar    1  UNL1        0.0042
     17 S           7.1029   40.9382    6.8951 S.O2    1  UNL1        0.1010
     18 O           6.8712   41.1053    5.4191 O.2     1  UNL1       -0.1477
     19 O           6.4349   39.6712    7.3512 O.2     1  UNL1       -0.1477
     20 C           6.7959   43.6283    7.3275 C.3     1  UNL1        0.1392
     21 N           6.4329   42.2869    7.7641 N.pl3   1  UNL1       -0.1870
     22 C           5.5647   42.0976    8.8999 C.ar    1  UNL1        0.0690
     23 C           6.0131   41.3946   10.0316 C.ar    1  UNL1        0.0170
     24 C           5.1723   41.2036   11.1314 C.ar    1  UNL1        0.0127
     25 C           3.8726   41.7139   11.1132 C.ar    1  UNL1        0.0578
     26 C           3.4139   42.4161    9.9966 C.ar    1  UNL1        0.0127
     27 C           4.2554   42.6062    8.8973 C.ar    1  UNL1        0.0170
     28 CL          2.8192   41.4751   12.4901 Cl      1  UNL1       -0.0822
@<TRIPOS>BOND
     1    20    21    1
     2    23    24   ar
     3    25    28    1
     4    25    26   ar
     5    27    22   ar
     6     1     5   ar
     7     2     7    1
     8     2     5   ar
     9     6    10    1
    10    11    12   ar
    11    13    15   ar
    12    14    13    1
    13    16    10   ar
    14    21    22    1
    15     3     4   ar
    16     7     6   am
    17    17    21    1
    18    17     1    1
    19    22    23   ar
    20    24    25   ar
    21    26    27   ar
    22     1     3   ar
    23     2     4   ar
    24     6     8    2
    25    10    11   ar
    26    12    13   ar
    27    15    16   ar
    28    17    18    2
    29    17    19    2
    30     7     9    1
@<TRIPOS>MOLECULE
MolPort-007-723-734 9405089 ChemDiv-E157-8413 MCULE-2668155408 PubChem-22518212 ZINC000009405089 ZINC09405089
 28 30 0 0 0
SMALL
GASTEIGER

@<TRIPOS>ATOM
      1 C          10.5902   42.1304    9.6928 C.ar    1  UNL1        0.2593
      2 C          12.6635   41.0220    9.2781 C.ar    1  UNL1        0.1896
      3 N          11.2124   42.5740    8.5787 N.ar    1  UNL1       -0.1187
      4 N          12.3697   41.9576    8.3473 N.ar    1  UNL1       -0.1239
      5 S          11.4690   40.9143   10.4581 S.2     1  UNL1       -0.0102
      6 C          14.3782   39.5157   10.3962 C.2     1  UNL1        0.2509
      7 N          13.8427   40.2119    9.2629 N.am    1  UNL1       -0.2592
      8 O          13.7988   39.5775   11.5151 O.2     1  UNL1       -0.2698
      9 H          14.3236   40.1259    8.4082 H       1  UNL1        0.1571
     10 C          15.6123   38.7232   10.2528 C.ar    1  UNL1        0.0537
     11 C          15.5931   37.4997    9.5675 C.ar    1  UNL1        0.0042
     12 C          16.7640   36.7488    9.4280 C.ar    1  UNL1       -0.0041
     13 C          17.9627   37.2156    9.9734 C.ar    1  UNL1       -0.0218
     14 C          19.2067   36.4160    9.8277 C.3     1  UNL1        0.0310
     15 C          17.9906   38.4320   10.6598 C.ar    1  UNL1       -0.0041
     16 C          16.8199   39.1833   10.7987 C.ar    1  UNL1        0.0042
     17 S           9.0377   42.7275   10.2417 S.O2    1  UNL1        0.1010
     18 O           8.9595   42.5764   11.7354 O.2     1  UNL1       -0.1477
     19 O           8.8955   44.1827    9.8927 O.2     1  UNL1       -0.1477
     20 C           8.1053   40.9855    8.3406 C.3     1  UNL1        0.1392
     21 N           7.7613   41.8257    9.4797 N.pl3   1  UNL1       -0.1870
     22 C           6.3958   41.9181    9.9343 C.ar    1  UNL1        0.0690
     23 C           5.9681   41.1943   11.0608 C.ar    1  UNL1        0.0170
     24 C           4.6440   41.2764   11.5002 C.ar    1  UNL1        0.0127
     25 C           3.7313   42.0840   10.8185 C.ar    1  UNL1        0.0578
     26 C           4.1422   42.8102    9.6988 C.ar    1  UNL1        0.0127
     27 C           5.4664   42.7272    9.2601 C.ar    1  UNL1        0.0170
     28 CL          2.0730   42.1872   11.3682 Cl      1  UNL1       -0.0822
@<TRIPOS>BOND
     1    20    21    1
     2    23    24   ar
     3    25    28    1
     4    25    26   ar
     5    27    22   ar
     6     1     5   ar
     7     2     7    1
     8     2     5   ar
     9     6    10    1
    10    11    12   ar
    11    13    15   ar
    12    14    13    1
    13    16    10   ar
    14    21    22    1
    15     3     4   ar
    16     7     6   am
    17    17    21    1
    18    17     1    1
    19    22    23   ar
    20    24    25   ar
    21    26    27   ar
    22     1     3   ar
    23     2     4   ar
    24     6     8    2
    25    10    11   ar
    26    12    13   ar
    27    15    16   ar
    28    17    18    2
    29    17    19    2
    30     7     9    1
@<TRIPOS>MOLECULE
MolPort-007-723-734 9405089 ChemDiv-E157-8413 MCULE-2668155408 PubChem-22518212 ZINC000009405089 ZINC09405089
 28 30 0 0 0
SMALL
GASTEIGER

@<TRIPOS>ATOM
      1 C           9.0486   40.7412    6.8087 C.ar    1  UNL1        0.2593
      2 C          11.4074   41.0148    7.0532 C.ar    1  UNL1        0.1896
      3 N           9.7320   39.5849    6.6636 N.ar    1  UNL1       -0.1187
      4 N          11.0479   39.7367    6.7983 N.ar    1  UNL1       -0.1239
      5 S          10.0743   42.0387    7.1267 S.2     1  UNL1       -0.0102
      6 C          13.3395   42.6161    6.6499 C.2     1  UNL1        0.2509
      7 N          12.7567   41.4498    7.2465 N.am    1  UNL1       -0.2592
      8 O          12.6516   43.3591    5.8974 O.2     1  UNL1       -0.2698
      9 H          13.3293   40.9061    7.8345 H       1  UNL1        0.1571
     10 C          14.7499   42.9487    6.9176 C.ar    1  UNL1        0.0537
     11 C          15.5051   42.1698    7.8064 C.ar    1  UNL1        0.0042
     12 C          16.8442   42.4824    8.0585 C.ar    1  UNL1       -0.0041
     13 C          17.4376   43.5768    7.4242 C.ar    1  UNL1       -0.0218
     14 C          18.8602   43.9109    7.6945 C.3     1  UNL1        0.0310
     15 C          16.6922   44.3597    6.5394 C.ar    1  UNL1       -0.0041
     16 C          15.3534   44.0467    6.2866 C.ar    1  UNL1        0.0042
     17 S           7.3032   40.8564    6.7156 S.O2    1  UNL1        0.1010
     18 O           6.9265   41.4703    5.3960 O.2     1  UNL1       -0.1477
     19 O           6.6934   39.4855    6.8051 O.2     1  UNL1       -0.1477
     20 C           5.7179   42.8568    7.7172 C.3     1  UNL1        0.1392
     21 N           6.7109   41.8362    8.0241 N.pl3   1  UNL1       -0.1870
     22 C           7.1985   41.6722    9.3713 C.ar    1  UNL1        0.0690
     23 C           6.3025   41.4648   10.4343 C.ar    1  UNL1        0.0170
     24 C           6.7711   41.3119   11.7420 C.ar    1  UNL1        0.0127
     25 C           8.1420   41.3640   12.0027 C.ar    1  UNL1        0.0578
     26 C           9.0442   41.5675   10.9564 C.ar    1  UNL1        0.0127
     27 C           8.5745   41.7205    9.6491 C.ar    1  UNL1        0.0170
     28 CL          8.7295   41.1726   13.6399 Cl      1  UNL1       -0.0822
@<TRIPOS>BOND
     1    20    21    1
     2    23    24   ar
     3    25    28    1
     4    25    26   ar
     5    27    22   ar
     6     1     5   ar
     7     2     7    1
     8     2     5   ar
     9     6    10    1
    10    11    12   ar
    11    13    15   ar
    12    14    13    1
    13    16    10   ar
    14    21    22    1
    15     3     4   ar
    16     7     6   am
    17    17    21    1
    18    17     1    1
    19    22    23   ar
    20    24    25   ar
    21    26    27   ar
    22     1     3   ar
    23     2     4   ar
    24     6     8    2
    25    10    11   ar
    26    12    13   ar
    27    15    16   ar
    28    17    18    2
    29    17    19    2
    30     7     9    1
@<TRIPOS>MOLECULE
MolPort-007-723-734 9405089 ChemDiv-E157-8413 MCULE-2668155408 PubChem-22518212 ZINC000009405089 ZINC09405089
 28 30 0 0 0
SMALL
GASTEIGER

@<TRIPOS>ATOM
      1 C          12.8274   39.0637    9.9843 C.ar    1  UNL1        0.2593
      2 C          10.6539   39.9106    9.4769 C.ar    1  UNL1        0.1896
      3 N          12.2524   38.4446    8.9302 N.ar    1  UNL1       -0.1187
      4 N          11.0394   38.9151    8.6473 N.ar    1  UNL1       -0.1239
      5 S          11.8318   40.2612   10.6260 S.2     1  UNL1       -0.0102
      6 C           9.0930   41.6348    8.4519 C.2     1  UNL1        0.2509
      7 N           9.3997   40.5935    9.3887 N.am    1  UNL1       -0.2592
      8 O           9.9544   42.0091    7.6096 O.2     1  UNL1       -0.2698
      9 H           8.6926   40.3280   10.0202 H       1  UNL1        0.1571
     10 C           7.7639   42.2709    8.4731 C.ar    1  UNL1        0.0537
     11 C           6.6965   41.6596    9.1469 C.ar    1  UNL1        0.0042
     12 C           5.4361   42.2640    9.1705 C.ar    1  UNL1       -0.0041
     13 C           5.2337   43.4837    8.5197 C.ar    1  UNL1       -0.0218
     14 C           3.8932   44.1246    8.5422 C.3     1  UNL1        0.0310
     15 C           6.2906   44.0984    7.8440 C.ar    1  UNL1       -0.0041
     16 C           7.5512   43.4946    7.8210 C.ar    1  UNL1        0.0042
     17 S          14.4318   38.6853   10.5766 S.O2    1  UNL1        0.1010
     18 O          14.4406   38.8176   12.0741 O.2     1  UNL1       -0.1477
     19 O          14.7931   37.2726   10.2117 O.2     1  UNL1       -0.1477
     20 C          16.9625   39.7158   10.3499 C.3     1  UNL1        0.1392
     21 N          15.5881   39.7755    9.8712 N.pl3   1  UNL1       -0.1870
     22 C          15.2062   40.7322    8.8620 C.ar    1  UNL1        0.0690
     23 C          16.0754   41.7773    8.5040 C.ar    1  UNL1        0.0170
     24 C          15.7059   42.7100    7.5310 C.ar    1  UNL1        0.0127
     25 C          14.4625   42.6085    6.9035 C.ar    1  UNL1        0.0578
     26 C          13.5894   41.5744    7.2475 C.ar    1  UNL1        0.0127
     27 C          13.9597   40.6424    8.2208 C.ar    1  UNL1        0.0170
     28 CL         13.9992   43.7760    5.6850 Cl      1  UNL1       -0.0822
@<TRIPOS>BOND
     1    20    21    1
     2    23    24   ar
     3    25    28    1
     4    25    26   ar
     5    27    22   ar
     6     1     5   ar
     7     2     7    1
     8     2     5   ar
     9     6    10    1
    10    11    12   ar
    11    13    15   ar
    12    14    13    1
    13    16    10   ar
    14    21    22    1
    15     3     4   ar
    16     7     6   am
    17    17    21    1
    18    17     1    1
    19    22    23   ar
    20    24    25   ar
    21    26    27   ar
    22     1     3   ar
    23     2     4   ar
    24     6     8    2
    25    10    11   ar
    26    12    13   ar
    27    15    16   ar
    28    17    18    2
    29    17    19    2
    30     7     9    1
@<TRIPOS>MOLECULE
MolPort-007-723-734 9405089 ChemDiv-E157-8413 MCULE-2668155408 PubChem-22518212 ZINC000009405089 ZINC09405089
 28 30 0 0 0
SMALL
GASTEIGER

@<TRIPOS>ATOM
      1 C           9.6798   40.8832    9.1858 C.ar    1  UNL1        0.2593
      2 C          11.3937   39.2263    9.0593 C.ar    1  UNL1        0.1896
      3 N          10.1608   40.5277   10.3971 N.ar    1  UNL1       -0.1187
      4 N          11.1157   39.6024   10.3278 N.ar    1  UNL1       -0.1239
      5 S          10.4442   40.0475    7.9391 S.2     1  UNL1       -0.0102
      6 C          12.8959   37.2443    9.5836 C.2     1  UNL1        0.2509
      7 N          12.3810   38.2534    8.7046 N.am    1  UNL1       -0.2592
      8 O          12.4723   37.1539   10.7685 O.2     1  UNL1       -0.2698
      9 H          12.7341   38.2787    7.7860 H       1  UNL1        0.1571
     10 C          13.9253   36.3075    9.0998 C.ar    1  UNL1        0.0537
     11 C          15.0326   36.7810    8.3808 C.ar    1  UNL1        0.0042
     12 C          16.0115   35.8935    7.9244 C.ar    1  UNL1       -0.0041
     13 C          15.8900   34.5258    8.1829 C.ar    1  UNL1       -0.0218
     14 C          16.9291   33.5820    7.6951 C.3     1  UNL1        0.0310
     15 C          14.7892   34.0450    8.8961 C.ar    1  UNL1       -0.0041
     16 C          13.8106   34.9325    9.3533 C.ar    1  UNL1        0.0042
     17 S           8.4396   42.0977    8.9511 S.O2    1  UNL1        0.1010
     18 O           8.3464   42.9429   10.1909 O.2     1  UNL1       -0.1477
     19 O           8.7992   42.9796    7.7881 O.2     1  UNL1       -0.1477
     20 C           6.8302   40.4204    7.4969 C.3     1  UNL1        0.1392
     21 N           6.9148   41.3238    8.6365 N.pl3   1  UNL1       -0.1870
     22 C           5.7549   41.5798    9.4543 C.ar    1  UNL1        0.0690
     23 C           4.6949   42.3623    8.9645 C.ar    1  UNL1        0.0170
     24 C           3.5722   42.6178    9.7567 C.ar    1  UNL1        0.0127
     25 C           3.4957   42.0932   11.0485 C.ar    1  UNL1        0.0578
     26 C           4.5402   41.3124   11.5479 C.ar    1  UNL1        0.0127
     27 C           5.6625   41.0578   10.7551 C.ar    1  UNL1        0.0170
     28 CL          2.0902   42.4127   12.0410 Cl      1  UNL1       -0.0822
@<TRIPOS>BOND
     1    20    21    1
     2    23    24   ar
     3    25    28    1
     4    25    26   ar
     5    27    22   ar
     6     1     5   ar
     7     2     7    1
     8     2     5   ar
     9     6    10    1
    10    11    12   ar
    11    13    15   ar
    12    14    13    1
    13    16    10   ar
    14    21    22    1
    15     3     4   ar
    16     7     6   am
    17    17    21    1
    18    17     1    1
    19    22    23   ar
    20    24    25   ar
    21    26    27   ar
    22     1     3   ar
    23     2     4   ar
    24     6     8    2
    25    10    11   ar
    26    12    13   ar
    27    15    16   ar
    28    17    18    2
    29    17    19    2
    30     7     9    1
