@<TRIPOS>MOLECULE
MolPort-007-752-072 ChemDiv-E649-1604 MCULE-2966478132 PubChem-20909601 ZINC000015680328 ZINC15680328
 33 35 0 0 0
SMALL
GASTEIGER

@<TRIPOS>ATOM
      1 C          15.5326   37.8339   10.7562 C.ar    1  UNL1        0.1509
      2 C          14.9274   36.6680   10.2427 C.ar    1  UNL1        0.0743
      3 C          15.8729   36.0886    9.4301 C.ar    1  UNL1        0.0334
      4 C          16.9449   36.8905    9.4455 C.ar    1  UNL1        0.0915
      5 C          17.3011   34.8994    8.0866 C.ar    1  UNL1        0.0051
      6 C          17.8172   33.8114    7.2119 C.3     1  UNL1        0.0379
      7 C          16.0189   34.9395    8.6630 C.ar    1  UNL1       -0.0167
      8 C          14.9700   33.8936    8.4969 C.3     1  UNL1        0.0313
      9 N          16.7865   37.9664   10.2319 N.ar    1  UNL1       -0.3077
     10 S          18.2139   36.2773    8.5372 S.2     1  UNL1       -0.0744
     11 C          12.4157   36.6456    9.9405 C.2     1  UNL1        0.2266
     12 C          11.1047   36.1679   10.4535 C.3     1  UNL1        0.0949
     13 O          12.4493   37.4646    8.9835 O.2     1  UNL1       -0.2748
     14 N          13.6241   36.1382   10.5116 N.am    1  UNL1       -0.2826
     15 H          13.5560   35.3751   11.1298 H       1  UNL1        0.1549
     16 C          14.9833   38.7109   11.8095 C.2     1  UNL1        0.3586
     17 O          15.6890   39.0071   12.8115 O.2     1  UNL1       -0.2432
     18 O          13.6748   39.1880   11.7085 O.3     1  UNL1       -0.4444
     19 C          11.8073   40.4051   10.8262 C.3     1  UNL1        0.0513
     20 C          13.2802   40.0842   10.6804 C.3     1  UNL1        0.2089
     21 C          17.8220   38.9283   10.5911 C.3     1  UNL1        0.1925
     22 C          17.9191   39.9897    9.5498 C.2     1  UNL1        0.2492
     23 O          18.9034   39.9970    8.7642 O.2     1  UNL1       -0.2727
     24 N          16.8751   40.9662    9.4459 N.am    1  UNL1       -0.2826
     25 H          16.1283   40.8791   10.0815 H       1  UNL1        0.1549
     26 C          16.7995   42.0579    8.5159 C.ar    1  UNL1        0.0463
     27 C          15.6246   42.2472    7.7617 C.ar    1  UNL1       -0.0087
     28 C          15.5396   43.3106    6.8550 C.ar    1  UNL1       -0.0030
     29 C          16.6106   44.1937    6.7007 C.ar    1  UNL1       -0.0002
     30 C          17.7766   44.0126    7.4471 C.ar    1  UNL1        0.0013
     31 C          17.8707   42.9498    8.3489 C.ar    1  UNL1        0.0144
     32 C          14.4710   41.3047    7.8788 C.3     1  UNL1        0.0276
     33 C          13.3000   41.8083    7.0546 C.3     1  UNL1        0.0051
@<TRIPOS>BOND
     1    19    20    1
     2    20    18    1
     3    16    18    1
     4    16     1    1
     5     2    14    1
     6     2     3   ar
     7    12    11    1
     8     4    10   ar
     9     4     9   ar
    10     5    10   ar
    11     6     5    1
    12     7     3   ar
    13     8     7    1
    14    21     9    1
    15    21    22    1
    16    22    24   am
    17    27    28   ar
    18    32    27    1
    19    32    33    1
    20    29    30   ar
    21    31    26   ar
    22    14    11   am
    23     9     1   ar
    24    24    26    1
    25    16    17    2
    26     1     2   ar
    27    11    13    2
    28     3     4   ar
    29     5     7   ar
    30    22    23    2
    31    26    27   ar
    32    28    29   ar
    33    30    31   ar
    34    14    15    1
    35    24    25    1
@<TRIPOS>MOLECULE
MolPort-007-752-072 ChemDiv-E649-1604 MCULE-2966478132 PubChem-20909601 ZINC000015680328 ZINC15680328
 33 35 0 0 0
SMALL
GASTEIGER

@<TRIPOS>ATOM
      1 C          14.4882   39.8244    9.9098 C.ar    1  UNL1        0.1509
      2 C          15.7844   40.2767    9.5857 C.ar    1  UNL1        0.0743
      3 C          15.6045   41.2890    8.6731 C.ar    1  UNL1        0.0334
      4 C          14.2872   41.3899    8.4568 C.ar    1  UNL1        0.0915
      5 C          15.5581   43.0482    7.2027 C.ar    1  UNL1        0.0051
      6 C          16.0382   44.1581    6.3351 C.3     1  UNL1        0.0379
      7 C          16.3790   42.2079    7.9759 C.ar    1  UNL1       -0.0167
      8 C          17.8647   42.2975    8.0575 C.3     1  UNL1        0.0313
      9 N          13.5665   40.5190    9.1802 N.ar    1  UNL1       -0.3077
     10 S          13.9074   42.6348    7.3997 S.2     1  UNL1       -0.0744
     11 C          17.5588   38.5093    9.9440 C.2     1  UNL1        0.2266
     12 C          18.7700   38.0975   10.7012 C.3     1  UNL1        0.0949
     13 O          17.0181   37.6990    9.1448 O.2     1  UNL1       -0.2748
     14 N          17.0458   39.8346   10.1002 N.am    1  UNL1       -0.2826
     15 H          17.5954   40.4857   10.5934 H       1  UNL1        0.1549
     16 C          14.1407   38.8612   10.9736 C.2     1  UNL1        0.3586
     17 O          13.8038   39.2797   12.1143 O.2     1  UNL1       -0.2432
     18 O          14.2123   37.4892   10.7237 O.3     1  UNL1       -0.4444
     19 C          13.0735   35.5255    9.9529 C.3     1  UNL1        0.0513
     20 C          13.1254   36.6184   11.0000 C.3     1  UNL1        0.2089
     21 C          12.1130   40.4944    9.2968 C.3     1  UNL1        0.1925
     22 C          11.5211   39.7265    8.1653 C.2     1  UNL1        0.2492
     23 O          11.3893   38.4782    8.2670 O.2     1  UNL1       -0.2727
     24 N          11.0883   40.4288    6.9931 N.am    1  UNL1       -0.2826
     25 H          11.2042   41.4065    6.9999 H       1  UNL1        0.1549
     26 C          10.5040   39.8621    5.8100 C.ar    1  UNL1        0.0463
     27 C           9.1164   39.6219    5.7678 C.ar    1  UNL1       -0.0087
     28 C           8.5365   39.0730    4.6177 C.ar    1  UNL1       -0.0030
     29 C           9.3252   38.7712    3.5051 C.ar    1  UNL1       -0.0002
     30 C          10.7005   39.0093    3.5402 C.ar    1  UNL1        0.0013
     31 C          11.2867   39.5507    4.6869 C.ar    1  UNL1        0.0144
     32 C           8.2470   39.9043    6.9497 C.3     1  UNL1        0.0276
     33 C           6.8211   40.1641    6.4986 C.3     1  UNL1        0.0051
@<TRIPOS>BOND
     1    19    20    1
     2    20    18    1
     3    16    18    1
     4    16     1    1
     5     2    14    1
     6     2     3   ar
     7    12    11    1
     8     4    10   ar
     9     4     9   ar
    10     5    10   ar
    11     6     5    1
    12     7     3   ar
    13     8     7    1
    14    21     9    1
    15    21    22    1
    16    22    24   am
    17    27    28   ar
    18    32    27    1
    19    32    33    1
    20    29    30   ar
    21    31    26   ar
    22    14    11   am
    23     9     1   ar
    24    24    26    1
    25    16    17    2
    26     1     2   ar
    27    11    13    2
    28     3     4   ar
    29     5     7   ar
    30    22    23    2
    31    26    27   ar
    32    28    29   ar
    33    30    31   ar
    34    14    15    1
    35    24    25    1
@<TRIPOS>MOLECULE
MolPort-007-752-072 ChemDiv-E649-1604 MCULE-2966478132 PubChem-20909601 ZINC000015680328 ZINC15680328
 33 35 0 0 0
SMALL
GASTEIGER

@<TRIPOS>ATOM
      1 C          14.3134   39.4726   10.4496 C.ar    1  UNL1        0.1509
      2 C          15.4225   40.0079    9.7620 C.ar    1  UNL1        0.0743
      3 C          14.9071   40.9602    8.9150 C.ar    1  UNL1        0.0334
      4 C          13.5783   40.9492    9.0778 C.ar    1  UNL1        0.0915
      5 C          14.2982   42.6409    7.4784 C.ar    1  UNL1        0.0051
      6 C          14.4178   43.7432    6.4856 C.3     1  UNL1        0.0379
      7 C          15.3725   41.9028    8.0066 C.ar    1  UNL1       -0.0167
      8 C          16.8080   42.1103    7.6627 C.3     1  UNL1        0.0313
      9 N          13.1675   40.0597    9.9950 N.ar    1  UNL1       -0.3077
     10 S          12.8111   42.1110    8.1435 S.2     1  UNL1       -0.0744
     11 C          17.3610   38.3828    9.7176 C.2     1  UNL1        0.2266
     12 C          18.7706   38.1162   10.1072 C.3     1  UNL1        0.0949
     13 O          16.6766   37.4662    9.1893 O.2     1  UNL1       -0.2748
     14 N          16.8111   39.6886    9.9085 N.am    1  UNL1       -0.2826
     15 H          17.4268   40.4155   10.1568 H       1  UNL1        0.1549
     16 C          14.3627   38.5355   11.5897 C.2     1  UNL1        0.3586
     17 O          15.1451   38.7588   12.5529 O.2     1  UNL1       -0.2432
     18 O          13.5640   37.3901   11.5869 O.3     1  UNL1       -0.4444
     19 C          12.3945   35.5921   10.5160 C.3     1  UNL1        0.0513
     20 C          13.6732   36.4016   10.5736 C.3     1  UNL1        0.2089
     21 C          11.8127   39.9285   10.5185 C.3     1  UNL1        0.1925
     22 C          10.8837   39.5007    9.4347 C.2     1  UNL1        0.2492
     23 O          10.8427   38.2878    9.0985 O.2     1  UNL1       -0.2727
     24 N          10.0351   40.4754    8.8148 N.am    1  UNL1       -0.2826
     25 H          10.1100   41.3983    9.1493 H       1  UNL1        0.1549
     26 C           9.0876   40.2527    7.7589 C.ar    1  UNL1        0.0463
     27 C           9.5498   39.9206    6.4701 C.ar    1  UNL1       -0.0087
     28 C           8.6339   39.6980    5.4347 C.ar    1  UNL1       -0.0030
     29 C           7.2612   39.7926    5.6744 C.ar    1  UNL1       -0.0002
     30 C           6.7971   40.1190    6.9502 C.ar    1  UNL1        0.0013
     31 C           7.7056   40.3488    7.9864 C.ar    1  UNL1        0.0144
     32 C          11.0113   39.8402    6.1703 C.3     1  UNL1        0.0276
     33 C          11.2395   39.8832    4.6702 C.3     1  UNL1        0.0051
@<TRIPOS>BOND
     1    19    20    1
     2    20    18    1
     3    16    18    1
     4    16     1    1
     5     2    14    1
     6     2     3   ar
     7    12    11    1
     8     4    10   ar
     9     4     9   ar
    10     5    10   ar
    11     6     5    1
    12     7     3   ar
    13     8     7    1
    14    21     9    1
    15    21    22    1
    16    22    24   am
    17    27    28   ar
    18    32    27    1
    19    32    33    1
    20    29    30   ar
    21    31    26   ar
    22    14    11   am
    23     9     1   ar
    24    24    26    1
    25    16    17    2
    26     1     2   ar
    27    11    13    2
    28     3     4   ar
    29     5     7   ar
    30    22    23    2
    31    26    27   ar
    32    28    29   ar
    33    30    31   ar
    34    14    15    1
    35    24    25    1
@<TRIPOS>MOLECULE
MolPort-007-752-072 ChemDiv-E649-1604 MCULE-2966478132 PubChem-20909601 ZINC000015680328 ZINC15680328
 33 35 0 0 0
SMALL
GASTEIGER

@<TRIPOS>ATOM
      1 C          13.3764   40.2417    8.7087 C.ar    1  UNL1        0.1509
      2 C          14.7197   40.5518    9.0070 C.ar    1  UNL1        0.0743
      3 C          15.0617   41.5719    8.1513 C.ar    1  UNL1        0.0334
      4 C          13.9926   41.8109    7.3818 C.ar    1  UNL1        0.0915
      5 C          15.8424   43.3172    6.8850 C.ar    1  UNL1        0.0051
      6 C          16.7626   44.3645    6.3640 C.3     1  UNL1        0.0379
      7 C          16.1504   42.3991    7.9048 C.ar    1  UNL1       -0.0167
      8 C          17.4479   42.3309    8.6355 C.3     1  UNL1        0.0313
      9 N          12.9449   41.0259    7.6775 N.ar    1  UNL1       -0.3077
     10 S          14.2429   43.0827    6.3182 S.2     1  UNL1       -0.0744
     11 C          16.0336   38.6277    9.9929 C.2     1  UNL1        0.2266
     12 C          16.7322   38.0792   11.1850 C.3     1  UNL1        0.0949
     13 O          15.8863   37.9063    8.9703 O.2     1  UNL1       -0.2748
     14 N          15.5739   39.9813   10.0052 N.am    1  UNL1       -0.2826
     15 H          15.8633   40.5589   10.7480 H       1  UNL1        0.1549
     16 C          12.5021   39.3272    9.4700 C.2     1  UNL1        0.3586
     17 O          11.9142   39.7384   10.5069 O.2     1  UNL1       -0.2432
     18 O          12.3495   38.0021    9.0570 O.3     1  UNL1       -0.4444
     19 C          12.0499   36.1226   10.5148 C.3     1  UNL1        0.0513
     20 C          11.3714   37.1460    9.6283 C.3     1  UNL1        0.2089
     21 C          11.5950   41.1564    7.1416 C.3     1  UNL1        0.1925
     22 C          10.6698   41.6532    8.1987 C.2     1  UNL1        0.2492
     23 O          10.9115   42.7514    8.7658 O.2     1  UNL1       -0.2727
     24 N           9.5073   40.8830    8.5302 N.am    1  UNL1       -0.2826
     25 H           9.3764   40.0475    8.0261 H       1  UNL1        0.1549
     26 C           8.5127   41.1969    9.5175 C.ar    1  UNL1        0.0463
     27 C           7.1683   41.3486    9.1245 C.ar    1  UNL1       -0.0087
     28 C           6.1905   41.6511   10.0799 C.ar    1  UNL1       -0.0030
     29 C           6.5385   41.7932   11.4251 C.ar    1  UNL1       -0.0002
     30 C           7.8689   41.6415   11.8209 C.ar    1  UNL1        0.0013
     31 C           8.8506   41.3461   10.8719 C.ar    1  UNL1        0.0144
     32 C           6.7647   41.2334    7.6905 C.3     1  UNL1        0.0276
     33 C           6.8492   42.5897    7.0141 C.3     1  UNL1        0.0051
@<TRIPOS>BOND
     1    19    20    1
     2    20    18    1
     3    16    18    1
     4    16     1    1
     5     2    14    1
     6     2     3   ar
     7    12    11    1
     8     4    10   ar
     9     4     9   ar
    10     5    10   ar
    11     6     5    1
    12     7     3   ar
    13     8     7    1
    14    21     9    1
    15    21    22    1
    16    22    24   am
    17    27    28   ar
    18    32    27    1
    19    32    33    1
    20    29    30   ar
    21    31    26   ar
    22    14    11   am
    23     9     1   ar
    24    24    26    1
    25    16    17    2
    26     1     2   ar
    27    11    13    2
    28     3     4   ar
    29     5     7   ar
    30    22    23    2
    31    26    27   ar
    32    28    29   ar
    33    30    31   ar
    34    14    15    1
    35    24    25    1
@<TRIPOS>MOLECULE
MolPort-007-752-072 ChemDiv-E649-1604 MCULE-2966478132 PubChem-20909601 ZINC000015680328 ZINC15680328
 33 35 0 0 0
SMALL
GASTEIGER

@<TRIPOS>ATOM
      1 C          13.1569   40.5789    8.9643 C.ar    1  UNL1        0.1509
      2 C          12.9819   41.4710    7.8858 C.ar    1  UNL1        0.0743
      3 C          14.2228   42.0144    7.6515 C.ar    1  UNL1        0.0334
      4 C          15.0548   41.4948    8.5625 C.ar    1  UNL1        0.0915
      5 C          16.1955   43.0007    7.0234 C.ar    1  UNL1        0.0051
      6 C          17.1578   43.8388    6.2574 C.3     1  UNL1        0.0379
      7 C          14.8204   42.8876    6.7511 C.ar    1  UNL1       -0.0167
      8 C          14.1042   43.5840    5.6448 C.3     1  UNL1        0.0313
      9 N          14.4548   40.6215    9.3862 N.ar    1  UNL1       -0.3077
     10 S          16.6327   42.0253    8.3620 S.2     1  UNL1       -0.0744
     11 C          11.2658   40.9060    6.1149 C.2     1  UNL1        0.2266
     12 C          10.1584   41.3974    5.2534 C.3     1  UNL1        0.0949
     13 O          11.7024   39.7342    5.9604 O.2     1  UNL1       -0.2748
     14 N          11.7944   41.7545    7.1369 N.am    1  UNL1       -0.2826
     15 H          11.3107   42.5878    7.3391 H       1  UNL1        0.1549
     16 C          12.1538   39.6258    9.4800 C.2     1  UNL1        0.3586
     17 O          11.9747   38.5239    8.8938 O.2     1  UNL1       -0.2432
     18 O          11.3862   39.9573   10.5984 O.3     1  UNL1       -0.4444
     19 C          10.0640   41.3336   12.0492 C.3     1  UNL1        0.0513
     20 C          10.6033   41.1407   10.6472 C.3     1  UNL1        0.2089
     21 C          15.1186   39.7664   10.3634 C.3     1  UNL1        0.1925
     22 C          15.6082   38.5217    9.7065 C.2     1  UNL1        0.2492
     23 O          16.8268   38.4195    9.4057 O.2     1  UNL1       -0.2727
     24 N          14.6859   37.4538    9.4545 N.am    1  UNL1       -0.2826
     25 H          13.7553   37.6015    9.7399 H       1  UNL1        0.1549
     26 C          14.9712   36.1919    8.8312 C.ar    1  UNL1        0.0463
     27 C          14.3694   35.0196    9.3298 C.ar    1  UNL1       -0.0087
     28 C          14.6382   33.7849    8.7269 C.ar    1  UNL1       -0.0030
     29 C          15.4929   33.7090    7.6249 C.ar    1  UNL1       -0.0002
     30 C          16.0903   34.8676    7.1248 C.ar    1  UNL1        0.0013
     31 C          15.8316   36.1021    7.7255 C.ar    1  UNL1        0.0144
     32 C          13.4739   35.0592   10.5253 C.3     1  UNL1        0.0276
     33 C          12.0708   35.4661   10.1132 C.3     1  UNL1        0.0051
@<TRIPOS>BOND
     1    19    20    1
     2    20    18    1
     3    16    18    1
     4    16     1    1
     5     2    14    1
     6     2     3   ar
     7    12    11    1
     8     4    10   ar
     9     4     9   ar
    10     5    10   ar
    11     6     5    1
    12     7     3   ar
    13     8     7    1
    14    21     9    1
    15    21    22    1
    16    22    24   am
    17    27    28   ar
    18    32    27    1
    19    32    33    1
    20    29    30   ar
    21    31    26   ar
    22    14    11   am
    23     9     1   ar
    24    24    26    1
    25    16    17    2
    26     1     2   ar
    27    11    13    2
    28     3     4   ar
    29     5     7   ar
    30    22    23    2
    31    26    27   ar
    32    28    29   ar
    33    30    31   ar
    34    14    15    1
    35    24    25    1
@<TRIPOS>MOLECULE
MolPort-007-752-072 ChemDiv-E649-1604 MCULE-2966478132 PubChem-20909601 ZINC000015680328 ZINC15680328
 33 35 0 0 0
SMALL
GASTEIGER

@<TRIPOS>ATOM
      1 C          13.2053   39.8026    9.4064 C.ar    1  UNL1        0.1509
      2 C          14.4064   40.5029    9.1689 C.ar    1  UNL1        0.0743
      3 C          14.1654   41.2849    8.0642 C.ar    1  UNL1        0.0334
      4 C          12.9137   41.0243    7.6672 C.ar    1  UNL1        0.0915
      5 C          13.9829   42.7271    6.2906 C.ar    1  UNL1        0.0051
      6 C          14.3472   43.7714    5.2947 C.3     1  UNL1        0.0379
      7 C          14.8258   42.2453    7.3082 C.ar    1  UNL1       -0.0167
      8 C          16.2202   42.7086    7.5591 C.3     1  UNL1        0.0313
      9 N          12.2901   40.1270    8.4464 N.ar    1  UNL1       -0.3077
     10 S          12.4539   41.9571    6.3519 S.2     1  UNL1       -0.0744
     11 C          16.4576   39.3129   10.0503 C.2     1  UNL1        0.2266
     12 C          17.5834   39.3268   11.0211 C.3     1  UNL1        0.0949
     13 O          16.2676   38.2960    9.3311 O.2     1  UNL1       -0.2748
     14 N          15.6290   40.4700    9.9144 N.am    1  UNL1       -0.2826
     15 H          15.9174   41.2979   10.3623 H       1  UNL1        0.1549
     16 C          12.9031   38.9617   10.5820 C.2     1  UNL1        0.3586
     17 O          12.9830   39.4509   11.7414 O.2     1  UNL1       -0.2432
     18 O          12.5569   37.6199   10.4100 O.3     1  UNL1       -0.4444
     19 C          12.9864   35.2904   10.0409 C.3     1  UNL1        0.0513
     20 C          13.4650   36.5675   10.6994 C.3     1  UNL1        0.2089
     21 C          10.8790   39.7647    8.3801 C.3     1  UNL1        0.1925
     22 C          10.0308   40.9841    8.4988 C.2     1  UNL1        0.2492
     23 O          10.4739   41.9878    9.1170 O.2     1  UNL1       -0.2727
     24 N           8.7366   40.9993    7.8829 N.am    1  UNL1       -0.2826
     25 H           8.4719   40.1842    7.3983 H       1  UNL1        0.1549
     26 C           7.7838   42.0738    7.8956 C.ar    1  UNL1        0.0463
     27 C           7.0433   42.3311    9.0662 C.ar    1  UNL1       -0.0087
     28 C           6.1145   43.3785    9.0898 C.ar    1  UNL1       -0.0030
     29 C           5.9247   44.1789    7.9611 C.ar    1  UNL1       -0.0002
     30 C           6.6575   43.9303    6.7989 C.ar    1  UNL1        0.0013
     31 C           7.5811   42.8826    6.7662 C.ar    1  UNL1        0.0144
     32 C           7.1984   41.4766   10.2821 C.3     1  UNL1        0.0276
     33 C           5.8980   41.4410   11.0643 C.3     1  UNL1        0.0051
@<TRIPOS>BOND
     1    19    20    1
     2    20    18    1
     3    16    18    1
     4    16     1    1
     5     2    14    1
     6     2     3   ar
     7    12    11    1
     8     4    10   ar
     9     4     9   ar
    10     5    10   ar
    11     6     5    1
    12     7     3   ar
    13     8     7    1
    14    21     9    1
    15    21    22    1
    16    22    24   am
    17    27    28   ar
    18    32    27    1
    19    32    33    1
    20    29    30   ar
    21    31    26   ar
    22    14    11   am
    23     9     1   ar
    24    24    26    1
    25    16    17    2
    26     1     2   ar
    27    11    13    2
    28     3     4   ar
    29     5     7   ar
    30    22    23    2
    31    26    27   ar
    32    28    29   ar
    33    30    31   ar
    34    14    15    1
    35    24    25    1
@<TRIPOS>MOLECULE
MolPort-007-752-072 ChemDiv-E649-1604 MCULE-2966478132 PubChem-20909601 ZINC000015680328 ZINC15680328
 33 35 0 0 0
SMALL
GASTEIGER

@<TRIPOS>ATOM
      1 C          13.2129   39.6926    9.2551 C.ar    1  UNL1        0.1509
      2 C          14.4024   40.4360    9.1073 C.ar    1  UNL1        0.0743
      3 C          14.1971   41.2480    8.0171 C.ar    1  UNL1        0.0334
      4 C          12.9776   40.9642    7.5433 C.ar    1  UNL1        0.0915
      5 C          14.0658   42.7443    6.2842 C.ar    1  UNL1        0.0051
      6 C          14.4505   43.8325    5.3446 C.3     1  UNL1        0.0379
      7 C          14.8670   42.2530    7.3305 C.ar    1  UNL1       -0.0167
      8 C          16.2305   42.7485    7.6730 C.3     1  UNL1        0.0313
      9 N          12.3413   40.0226    8.2571 N.ar    1  UNL1       -0.3077
     10 S          12.5607   41.9276    6.2358 S.2     1  UNL1       -0.0744
     11 C          16.4449   39.2811   10.0533 C.2     1  UNL1        0.2266
     12 C          17.5152   39.2928   11.0849 C.3     1  UNL1        0.0949
     13 O          16.3312   38.2892    9.2847 O.2     1  UNL1       -0.2748
     14 N          15.5832   40.4138    9.9177 N.am    1  UNL1       -0.2826
     15 H          15.8166   41.2316   10.4136 H       1  UNL1        0.1549
     16 C          12.8741   38.8033   10.3841 C.2     1  UNL1        0.3586
     17 O          13.2723   39.0848   11.5469 O.2     1  UNL1       -0.2432
     18 O          12.1377   37.6385   10.1586 O.3     1  UNL1       -0.4444
     19 C          13.5815   35.7390   10.3924 C.3     1  UNL1        0.0513
     20 C          12.6841   36.5283    9.4623 C.3     1  UNL1        0.2089
     21 C          10.9480   39.6211    8.1012 C.3     1  UNL1        0.1925
     22 C          10.0456   40.7036    8.5852 C.2     1  UNL1        0.2492
     23 O           9.9589   40.9301    9.8210 O.2     1  UNL1       -0.2727
     24 N           9.3139   41.4840    7.6311 N.am    1  UNL1       -0.2826
     25 H           9.4533   41.2604    6.6825 H       1  UNL1        0.1549
     26 C           8.3998   42.5564    7.9079 C.ar    1  UNL1        0.0463
     27 C           7.1870   42.6361    7.1953 C.ar    1  UNL1       -0.0087
     28 C           6.2875   43.6757    7.4602 C.ar    1  UNL1       -0.0030
     29 C           6.5804   44.6307    8.4364 C.ar    1  UNL1       -0.0002
     30 C           7.7795   44.5555    9.1476 C.ar    1  UNL1        0.0013
     31 C           8.6847   43.5246    8.8838 C.ar    1  UNL1        0.0144
     32 C           6.8545   41.6497    6.1234 C.3     1  UNL1        0.0276
     33 C           6.2997   40.3777    6.7385 C.3     1  UNL1        0.0051
@<TRIPOS>BOND
     1    19    20    1
     2    20    18    1
     3    16    18    1
     4    16     1    1
     5     2    14    1
     6     2     3   ar
     7    12    11    1
     8     4    10   ar
     9     4     9   ar
    10     5    10   ar
    11     6     5    1
    12     7     3   ar
    13     8     7    1
    14    21     9    1
    15    21    22    1
    16    22    24   am
    17    27    28   ar
    18    32    27    1
    19    32    33    1
    20    29    30   ar
    21    31    26   ar
    22    14    11   am
    23     9     1   ar
    24    24    26    1
    25    16    17    2
    26     1     2   ar
    27    11    13    2
    28     3     4   ar
    29     5     7   ar
    30    22    23    2
    31    26    27   ar
    32    28    29   ar
    33    30    31   ar
    34    14    15    1
    35    24    25    1
@<TRIPOS>MOLECULE
MolPort-007-752-072 ChemDiv-E649-1604 MCULE-2966478132 PubChem-20909601 ZINC000015680328 ZINC15680328
 33 35 0 0 0
SMALL
GASTEIGER

@<TRIPOS>ATOM
      1 C          12.3930   40.1118    7.6634 C.ar    1  UNL1        0.1509
      2 C          13.6708   40.1995    8.2541 C.ar    1  UNL1        0.0743
      3 C          14.2378   41.3411    7.7392 C.ar    1  UNL1        0.0334
      4 C          13.3554   41.8604    6.8767 C.ar    1  UNL1        0.0915
      5 C          15.3612   43.2289    7.0809 C.ar    1  UNL1        0.0051
      6 C          16.4315   44.2593    6.9920 C.3     1  UNL1        0.0379
      7 C          15.4056   42.0788    7.8891 C.ar    1  UNL1       -0.0167
      8 C          16.5303   41.7088    8.7947 C.3     1  UNL1        0.0313
      9 N          12.2212   41.1481    6.7910 N.ar    1  UNL1       -0.3077
     10 S          13.8894   43.3021    6.2075 S.2     1  UNL1       -0.0744
     11 C          14.1114   39.4600   10.6331 C.2     1  UNL1        0.2266
     12 C          14.9557   38.6470   11.5475 C.3     1  UNL1        0.0949
     13 O          13.2335   40.2264   11.1122 O.2     1  UNL1       -0.2748
     14 N          14.2769   39.3316    9.2189 N.am    1  UNL1       -0.2826
     15 H          14.8444   38.5989    8.8866 H       1  UNL1        0.1549
     16 C          11.3300   39.1516    8.0216 C.2     1  UNL1        0.3586
     17 O          10.4809   38.8032    7.1570 O.2     1  UNL1       -0.2432
     18 O          11.2497   38.6525    9.3232 O.3     1  UNL1       -0.4444
     19 C          12.0498   36.5481   10.1471 C.3     1  UNL1        0.0513
     20 C          10.8663   37.3119    9.5906 C.3     1  UNL1        0.2089
     21 C          11.0116   41.5409    6.0773 C.3     1  UNL1        0.1925
     22 C           9.9762   42.0078    7.0420 C.2     1  UNL1        0.2492
     23 O          10.3034   42.2408    8.2356 O.2     1  UNL1       -0.2727
     24 N           8.6328   42.2084    6.5844 N.am    1  UNL1       -0.2826
     25 H           8.4621   42.0265    5.6320 H       1  UNL1        0.1549
     26 C           7.5085   42.6459    7.3636 C.ar    1  UNL1        0.0463
     27 C           6.6351   41.6902    7.9193 C.ar    1  UNL1       -0.0087
     28 C           5.5382   42.1063    8.6834 C.ar    1  UNL1       -0.0030
     29 C           5.3097   43.4657    8.9080 C.ar    1  UNL1       -0.0002
     30 C           6.1732   44.4174    8.3620 C.ar    1  UNL1        0.0013
     31 C           7.2660   44.0095    7.5930 C.ar    1  UNL1        0.0144
     32 C           6.8316   40.2293    7.6746 C.3     1  UNL1        0.0276
     33 C           6.2583   39.8448    6.3227 C.3     1  UNL1        0.0051
@<TRIPOS>BOND
     1    19    20    1
     2    20    18    1
     3    16    18    1
     4    16     1    1
     5     2    14    1
     6     2     3   ar
     7    12    11    1
     8     4    10   ar
     9     4     9   ar
    10     5    10   ar
    11     6     5    1
    12     7     3   ar
    13     8     7    1
    14    21     9    1
    15    21    22    1
    16    22    24   am
    17    27    28   ar
    18    32    27    1
    19    32    33    1
    20    29    30   ar
    21    31    26   ar
    22    14    11   am
    23     9     1   ar
    24    24    26    1
    25    16    17    2
    26     1     2   ar
    27    11    13    2
    28     3     4   ar
    29     5     7   ar
    30    22    23    2
    31    26    27   ar
    32    28    29   ar
    33    30    31   ar
    34    14    15    1
    35    24    25    1
@<TRIPOS>MOLECULE
MolPort-007-752-072 ChemDiv-E649-1604 MCULE-2966478132 PubChem-20909601 ZINC000015680328 ZINC15680328
 33 35 0 0 0
SMALL
GASTEIGER

@<TRIPOS>ATOM
      1 C          13.0884   40.6300    8.2737 C.ar    1  UNL1        0.1509
      2 C          14.3432   40.2588    8.8000 C.ar    1  UNL1        0.0743
      3 C          15.2141   41.2489    8.4110 C.ar    1  UNL1        0.0334
      4 C          14.5119   42.1191    7.6748 C.ar    1  UNL1        0.0915
      5 C          16.8342   42.8047    7.9487 C.ar    1  UNL1        0.0051
      6 C          18.1589   43.4830    7.9389 C.3     1  UNL1        0.0379
      7 C          16.5490   41.5877    8.5933 C.ar    1  UNL1       -0.0167
      8 C          17.5272   40.7825    9.3787 C.3     1  UNL1        0.0313
      9 N          13.2173   41.7854    7.5574 N.ar    1  UNL1       -0.3077
     10 S          15.4373   43.4248    7.1747 S.2     1  UNL1       -0.0744
     11 C          14.3764   39.0072   10.9984 C.2     1  UNL1        0.2266
     12 C          14.9615   37.8903   11.7858 C.3     1  UNL1        0.0949
     13 O          13.5898   39.8180   11.5566 O.2     1  UNL1       -0.2748
     14 N          14.6801   39.1239    9.6063 N.am    1  UNL1       -0.2826
     15 H          15.1514   38.3756    9.1737 H       1  UNL1        0.1549
     16 C          11.7948   39.9775    8.5589 C.2     1  UNL1        0.3586
     17 O          11.4088   39.0105    7.8477 O.2     1  UNL1       -0.2432
     18 O          10.9888   40.4495    9.5969 O.3     1  UNL1       -0.4444
     19 C           9.9518   42.3256   10.6702 C.3     1  UNL1        0.0513
     20 C          11.2567   41.6783   10.2558 C.3     1  UNL1        0.2089
     21 C          12.1673   42.6092    6.9697 C.3     1  UNL1        0.1925
     22 C          11.0625   41.7470    6.4632 C.2     1  UNL1        0.2492
     23 O          11.2680   40.9967    5.4729 O.2     1  UNL1       -0.2727
     24 N           9.7945   41.7694    7.1313 N.am    1  UNL1       -0.2826
     25 H           9.7204   42.3651    7.9116 H       1  UNL1        0.1549
     26 C           8.6205   41.0176    6.7867 C.ar    1  UNL1        0.0463
     27 C           7.4266   41.6983    6.4766 C.ar    1  UNL1       -0.0087
     28 C           6.2774   40.9746    6.1360 C.ar    1  UNL1       -0.0030
     29 C           6.3100   39.5790    6.0908 C.ar    1  UNL1       -0.0002
     30 C           7.4910   38.8990    6.3946 C.ar    1  UNL1        0.0013
     31 C           8.6395   39.6145    6.7417 C.ar    1  UNL1        0.0144
     32 C           7.3471   43.1888    6.5441 C.3     1  UNL1        0.0276
     33 C           6.6688   43.6175    7.8327 C.3     1  UNL1        0.0051
@<TRIPOS>BOND
     1    19    20    1
     2    20    18    1
     3    16    18    1
     4    16     1    1
     5     2    14    1
     6     2     3   ar
     7    12    11    1
     8     4    10   ar
     9     4     9   ar
    10     5    10   ar
    11     6     5    1
    12     7     3   ar
    13     8     7    1
    14    21     9    1
    15    21    22    1
    16    22    24   am
    17    27    28   ar
    18    32    27    1
    19    32    33    1
    20    29    30   ar
    21    31    26   ar
    22    14    11   am
    23     9     1   ar
    24    24    26    1
    25    16    17    2
    26     1     2   ar
    27    11    13    2
    28     3     4   ar
    29     5     7   ar
    30    22    23    2
    31    26    27   ar
    32    28    29   ar
    33    30    31   ar
    34    14    15    1
    35    24    25    1
@<TRIPOS>MOLECULE
MolPort-007-752-072 ChemDiv-E649-1604 MCULE-2966478132 PubChem-20909601 ZINC000015680328 ZINC15680328
 33 35 0 0 0
SMALL
GASTEIGER

@<TRIPOS>ATOM
      1 C           8.9969   41.2237    7.6646 C.ar    1  UNL1        0.1509
      2 C           7.9959   41.5856    8.5901 C.ar    1  UNL1        0.0743
      3 C           8.5451   41.3681    9.8315 C.ar    1  UNL1        0.0334
      4 C           9.7745   40.8765    9.6337 C.ar    1  UNL1        0.0915
      5 C           9.2624   41.1572   11.9995 C.ar    1  UNL1        0.0051
      6 C           9.2550   41.2169   13.4866 C.3     1  UNL1        0.0379
      7 C           8.1975   41.5420   11.1654 C.ar    1  UNL1       -0.0167
      8 C           6.8893   42.0797   11.6362 C.3     1  UNL1        0.0313
      9 N          10.0944   40.7649    8.3351 N.ar    1  UNL1       -0.3077
     10 S          10.5965   40.6151   11.0716 S.2     1  UNL1       -0.0744
     11 C           6.3558   43.5002    8.3779 C.2     1  UNL1        0.2266
     12 C           4.9300   43.9168    8.3200 C.3     1  UNL1        0.0949
     13 O           7.2597   44.3768    8.4228 O.2     1  UNL1       -0.2748
     14 N           6.6868   42.1099    8.3397 N.am    1  UNL1       -0.2826
     15 H           5.9681   41.4714    8.1274 H       1  UNL1        0.1549
     16 C           8.9531   41.4364    6.2041 C.2     1  UNL1        0.3586
     17 O           8.2711   42.3838    5.7275 O.2     1  UNL1       -0.2432
     18 O           9.6435   40.5723    5.3518 O.3     1  UNL1       -0.4444
     19 C           9.5708   39.1031    3.4588 C.3     1  UNL1        0.0513
     20 C           9.0556   39.3788    4.8560 C.3     1  UNL1        0.2089
     21 C          11.4083   40.4280    7.7995 C.3     1  UNL1        0.1925
     22 C          12.2582   41.6495    7.7208 C.2     1  UNL1        0.2492
     23 O          11.9463   42.6645    8.3979 O.2     1  UNL1       -0.2727
     24 N          13.4300   41.6350    6.8956 N.am    1  UNL1       -0.2826
     25 H          13.6182   40.7962    6.4158 H       1  UNL1        0.1549
     26 C          14.3596   42.7106    6.6922 C.ar    1  UNL1        0.0463
     27 C          15.5648   42.7337    7.4215 C.ar    1  UNL1       -0.0087
     28 C          16.4793   43.7761    7.2280 C.ar    1  UNL1       -0.0030
     29 C          16.2088   44.7900    6.3063 C.ar    1  UNL1       -0.0002
     30 C          15.0172   44.7712    5.5788 C.ar    1  UNL1        0.0013
     31 C          14.0973   43.7376    5.7717 C.ar    1  UNL1        0.0144
     32 C          15.8735   41.6823    8.4373 C.3     1  UNL1        0.0276
     33 C          17.3301   41.7719    8.8551 C.3     1  UNL1        0.0051
@<TRIPOS>BOND
     1    19    20    1
     2    20    18    1
     3    16    18    1
     4    16     1    1
     5     2    14    1
     6     2     3   ar
     7    12    11    1
     8     4    10   ar
     9     4     9   ar
    10     5    10   ar
    11     6     5    1
    12     7     3   ar
    13     8     7    1
    14    21     9    1
    15    21    22    1
    16    22    24   am
    17    27    28   ar
    18    32    27    1
    19    32    33    1
    20    29    30   ar
    21    31    26   ar
    22    14    11   am
    23     9     1   ar
    24    24    26    1
    25    16    17    2
    26     1     2   ar
    27    11    13    2
    28     3     4   ar
    29     5     7   ar
    30    22    23    2
    31    26    27   ar
    32    28    29   ar
    33    30    31   ar
    34    14    15    1
    35    24    25    1
