@<TRIPOS>MOLECULE
MolPort-020-292-464 MCULE-7546997450 PubChem-110264932
 33 36 0 0 0
SMALL
GASTEIGER

@<TRIPOS>ATOM
      1 C          12.9952   39.3333    9.1704 C.3     1  UNL1        0.0563
      2 C          12.5471   40.0949   10.4194 C.3     1  UNL1        0.0087
      3 C          13.1515   39.4796   11.6845 C.3     1  UNL1        0.0178
      4 C          14.5828   38.9737   11.4620 C.3     1  UNL1        0.0725
      5 C          14.5260   39.1791    9.0944 C.3     1  UNL1        0.0784
      6 N          15.1968   39.6387   10.3138 N.3     1  UNL1       -0.2647
      7 C           9.8714   39.3172    5.3400 C.3     1  UNL1        0.0521
      8 C          10.9664   39.9812    6.0943 C.ar    1  UNL1        0.0602
      9 C          11.4920   41.1910    5.6383 C.ar    1  UNL1        0.0294
     10 C          12.5292   41.8075    6.3502 C.ar    1  UNL1        0.0518
     11 C          13.0179   41.1952    7.5070 C.ar    1  UNL1        0.0294
     12 C          12.4686   39.9838    7.9348 C.ar    1  UNL1        0.0608
     13 N          11.4604   39.4064    7.2229 N.ar    1  UNL1       -0.2539
     14 N          13.1049   43.0539    5.9341 N.pl3   1  UNL1       -0.2966
     15 H          12.5208   43.6532    5.4156 H       1  UNL1        0.1537
     16 C          14.4349   43.5252    6.1883 C.ar    1  UNL1        0.1516
     17 C          16.5726   43.2635    7.1831 C.ar    1  UNL1        0.1210
     18 C          16.9757   44.4843    6.6403 C.ar    1  UNL1        0.1196
     19 C          14.8421   44.7466    5.6464 C.ar    1  UNL1        0.1332
     20 N          15.3132   42.8115    6.9456 N.ar    1  UNL1       -0.2258
     21 N          16.1016   45.1991    5.8833 N.ar    1  UNL1       -0.2378
     22 C          16.5722   39.1711   10.2359 C.3     1  UNL1        0.1588
     23 C          16.6387   37.6762   10.1927 C.2     1  UNL1        0.2425
     24 N          16.4386   36.9740    8.9560 N.am    1  UNL1       -0.2810
     25 O          16.8630   37.0509   11.2622 O.2     1  UNL1       -0.2733
     26 H          16.2234   37.5231    8.1677 H       1  UNL1        0.1550
     27 C          16.5194   35.5562    8.7482 C.ar    1  UNL1        0.0781
     28 C          17.7524   34.9040    8.5893 C.ar    1  UNL1        0.0170
     29 C          17.8022   33.5231    8.3827 C.ar    1  UNL1        0.0014
     30 C          16.6191   32.7823    8.3303 C.ar    1  UNL1        0.0024
     31 C          15.3874   33.4235    8.4832 C.ar    1  UNL1        0.0309
     32 C          15.3353   34.8053    8.6911 C.ar    1  UNL1        0.1535
     33 F          14.1313   35.4115    8.8398 F       1  UNL1       -0.2029
@<TRIPOS>BOND
     1     7     8    1
     2     8    13   ar
     3     9    10   ar
     4    10    14    1
     5    11    12   ar
     6     1    12    1
     7     1     2    1
     8     2     3    1
     9     3     4    1
    10     4     6    1
    11     5     6    1
    12     5     1    1
    13    22     6    1
    14    22    23    1
    15    23    24   am
    16    28    29   ar
    17    30    31   ar
    18    32    33    1
    19    32    27   ar
    20    17    20   ar
    21    18    21   ar
    22    19    16   ar
    23    24    27    1
    24    14    16    1
    25     8     9   ar
    26    10    11   ar
    27    12    13   ar
    28    23    25    2
    29    27    28   ar
    30    29    30   ar
    31    31    32   ar
    32    16    20   ar
    33    17    18   ar
    34    19    21   ar
    35    24    26    1
    36    14    15    1
@<TRIPOS>MOLECULE
MolPort-020-292-464 MCULE-7546997450 PubChem-110264932
 33 36 0 0 0
SMALL
GASTEIGER

@<TRIPOS>ATOM
      1 C          12.1716   38.5170    8.8234 C.3     1  UNL1        0.0563
      2 C          11.1642   37.5947    9.5127 C.3     1  UNL1        0.0087
      3 C          11.8780   36.5023   10.3138 C.3     1  UNL1        0.0178
      4 C          13.1630   37.0113   10.9801 C.3     1  UNL1        0.0725
      5 C          13.2220   39.0752    9.8021 C.3     1  UNL1        0.0784
      6 N          13.1295   38.4652   11.1315 N.3     1  UNL1       -0.2647
      7 C           8.0243   41.0274    7.8602 C.3     1  UNL1        0.0521
      8 C           9.4828   40.8374    7.6469 C.ar    1  UNL1        0.0602
      9 C          10.1764   41.6853    6.7821 C.ar    1  UNL1        0.0294
     10 C          11.5496   41.4956    6.5799 C.ar    1  UNL1        0.0518
     11 C          12.1988   40.4566    7.2514 C.ar    1  UNL1        0.0294
     12 C          11.4735   39.6263    8.1097 C.ar    1  UNL1        0.0608
     13 N          10.1386   39.8337    8.2876 N.ar    1  UNL1       -0.2539
     14 N          12.3164   42.3387    5.7086 N.pl3   1  UNL1       -0.2966
     15 H          11.9770   42.4414    4.7902 H       1  UNL1        0.1537
     16 C          13.5214   43.0485    6.0245 C.ar    1  UNL1        0.1516
     17 C          14.9239   44.9501    5.8119 C.ar    1  UNL1        0.1210
     18 C          15.8543   44.3609    6.6691 C.ar    1  UNL1        0.1196
     19 C          14.4549   42.4621    6.8824 C.ar    1  UNL1        0.1332
     20 N          13.7798   44.2821    5.5089 N.ar    1  UNL1       -0.2258
     21 N          15.5992   43.1298    7.1860 N.ar    1  UNL1       -0.2378
     22 C          14.3348   38.8465   11.8513 C.3     1  UNL1        0.1588
     23 C          15.4877   37.9617   11.4922 C.2     1  UNL1        0.2425
     24 N          16.1039   38.0579   10.1985 N.am    1  UNL1       -0.2810
     25 O          15.8966   37.1281   12.3427 O.2     1  UNL1       -0.2733
     26 H          15.7051   38.6998    9.5675 H       1  UNL1        0.1550
     27 C          17.2398   37.3170    9.7287 C.ar    1  UNL1        0.0781
     28 C          17.0934   36.1757    8.9243 C.ar    1  UNL1        0.0170
     29 C          18.2161   35.4695    8.4852 C.ar    1  UNL1        0.0014
     30 C          19.4953   35.8967    8.8488 C.ar    1  UNL1        0.0024
     31 C          19.6504   37.0289    9.6524 C.ar    1  UNL1        0.0309
     32 C          18.5281   37.7377   10.0922 C.ar    1  UNL1        0.1535
     33 F          18.6967   38.8359   10.8698 F       1  UNL1       -0.2029
@<TRIPOS>BOND
     1     7     8    1
     2     8    13   ar
     3     9    10   ar
     4    10    14    1
     5    11    12   ar
     6     1    12    1
     7     1     2    1
     8     2     3    1
     9     3     4    1
    10     4     6    1
    11     5     6    1
    12     5     1    1
    13    22     6    1
    14    22    23    1
    15    23    24   am
    16    28    29   ar
    17    30    31   ar
    18    32    33    1
    19    32    27   ar
    20    17    20   ar
    21    18    21   ar
    22    19    16   ar
    23    24    27    1
    24    14    16    1
    25     8     9   ar
    26    10    11   ar
    27    12    13   ar
    28    23    25    2
    29    27    28   ar
    30    29    30   ar
    31    31    32   ar
    32    16    20   ar
    33    17    18   ar
    34    19    21   ar
    35    24    26    1
    36    14    15    1
@<TRIPOS>MOLECULE
MolPort-020-292-464 MCULE-7546997450 PubChem-110264932
 33 36 0 0 0
SMALL
GASTEIGER

@<TRIPOS>ATOM
      1 C          13.2619   39.3833    9.3121 C.3     1  UNL1        0.0563
      2 C          12.7123   39.7126    7.9228 C.3     1  UNL1        0.0087
      3 C          11.2249   39.3631    7.8233 C.3     1  UNL1        0.0178
      4 C          10.4694   39.6463    9.1283 C.3     1  UNL1        0.0725
      5 C          12.4187   40.0071   10.4402 C.3     1  UNL1        0.0784
      6 N          11.1869   40.6261    9.9425 N.3     1  UNL1       -0.2647
      7 C          17.8156   38.5603   11.0491 C.3     1  UNL1        0.0521
      8 C          16.8812   39.4048   10.2601 C.ar    1  UNL1        0.0602
      9 C          17.3434   40.5720    9.6504 C.ar    1  UNL1        0.0294
     10 C          16.4553   41.3673    8.9145 C.ar    1  UNL1        0.0518
     11 C          15.1194   40.9733    8.8062 C.ar    1  UNL1        0.0294
     12 C          14.6904   39.7989    9.4298 C.ar    1  UNL1        0.0608
     13 N          15.5759   39.0445   10.1393 N.ar    1  UNL1       -0.2539
     14 N          16.8735   42.5737    8.2605 N.pl3   1  UNL1       -0.2966
     15 H          17.7734   42.9033    8.4860 H       1  UNL1        0.1537
     16 C          16.1288   43.3534    7.3155 C.ar    1  UNL1        0.1516
     17 C          14.1774   43.7330    6.0209 C.ar    1  UNL1        0.1210
     18 C          14.7495   44.8932    5.4971 C.ar    1  UNL1        0.1196
     19 C          16.6979   44.5155    6.7893 C.ar    1  UNL1        0.1332
     20 N          14.8784   42.9898    6.9171 N.ar    1  UNL1       -0.2258
     21 N          15.9972   45.2593    5.8932 N.ar    1  UNL1       -0.2378
     22 C          10.3581   40.9022   11.1058 C.3     1  UNL1        0.1588
     23 C           9.1893   41.7673   10.7501 C.2     1  UNL1        0.2425
     24 N           7.9706   41.1816   10.2661 N.am    1  UNL1       -0.2810
     25 O           9.3020   43.0151   10.8749 O.2     1  UNL1       -0.2733
     26 H           7.9673   40.2039   10.1509 H       1  UNL1        0.1550
     27 C           6.7570   41.8715    9.9327 C.ar    1  UNL1        0.0781
     28 C           6.6966   42.7825    8.8663 C.ar    1  UNL1        0.0170
     29 C           5.5035   43.4448    8.5667 C.ar    1  UNL1        0.0014
     30 C           4.3605   43.2041    9.3327 C.ar    1  UNL1        0.0024
     31 C           4.4123   42.3023   10.3984 C.ar    1  UNL1        0.0309
     32 C           5.6052   41.6376   10.6993 C.ar    1  UNL1        0.1535
     33 F           5.6374   40.7636   11.7359 F       1  UNL1       -0.2029
@<TRIPOS>BOND
     1     7     8    1
     2     8    13   ar
     3     9    10   ar
     4    10    14    1
     5    11    12   ar
     6     1    12    1
     7     1     2    1
     8     2     3    1
     9     3     4    1
    10     4     6    1
    11     5     6    1
    12     5     1    1
    13    22     6    1
    14    22    23    1
    15    23    24   am
    16    28    29   ar
    17    30    31   ar
    18    32    33    1
    19    32    27   ar
    20    17    20   ar
    21    18    21   ar
    22    19    16   ar
    23    24    27    1
    24    14    16    1
    25     8     9   ar
    26    10    11   ar
    27    12    13   ar
    28    23    25    2
    29    27    28   ar
    30    29    30   ar
    31    31    32   ar
    32    16    20   ar
    33    17    18   ar
    34    19    21   ar
    35    24    26    1
    36    14    15    1
@<TRIPOS>MOLECULE
MolPort-020-292-464 MCULE-7546997450 PubChem-110264932
 33 36 0 0 0
SMALL
GASTEIGER

@<TRIPOS>ATOM
      1 C          11.7815   39.8982    9.5840 C.3     1  UNL1        0.0563
      2 C          11.3679   39.6003    8.1415 C.3     1  UNL1        0.0087
      3 C           9.8487   39.6931    7.9752 C.3     1  UNL1        0.0178
      4 C           9.2351   40.8144    8.8239 C.3     1  UNL1        0.0725
      5 C          11.1980   41.2272   10.0997 C.3     1  UNL1        0.0784
      6 N          10.2408   41.8205    9.1617 N.3     1  UNL1       -0.2647
      7 C          15.8599   37.9744   11.6080 C.3     1  UNL1        0.0521
      8 C          15.2300   38.9606   10.6917 C.ar    1  UNL1        0.0602
      9 C          16.0270   39.8620    9.9845 C.ar    1  UNL1        0.0294
     10 C          15.4260   40.7939    9.1284 C.ar    1  UNL1        0.0518
     11 C          14.0349   40.8013    9.0002 C.ar    1  UNL1        0.0294
     12 C          13.2673   39.8850    9.7236 C.ar    1  UNL1        0.0608
     13 N          13.8783   38.9895   10.5490 N.ar    1  UNL1       -0.2539
     14 N          16.1932   41.7403    8.3710 N.pl3   1  UNL1       -0.2966
     15 H          17.1673   41.7261    8.5128 H       1  UNL1        0.1537
     16 C          15.7014   42.7045    7.4308 C.ar    1  UNL1        0.1516
     17 C          15.8792   44.7909    6.3157 C.ar    1  UNL1        0.1210
     18 C          14.7059   44.5158    5.6119 C.ar    1  UNL1        0.1196
     19 C          14.5275   42.4325    6.7242 C.ar    1  UNL1        0.1332
     20 N          16.3504   43.8808    7.2082 N.ar    1  UNL1       -0.2258
     21 N          14.0559   43.3423    5.8312 N.ar    1  UNL1       -0.2378
     22 C           9.5553   42.8836    9.8803 C.3     1  UNL1        0.1588
     23 C           8.2135   42.4347   10.3692 C.2     1  UNL1        0.2425
     24 N           7.0257   42.7458    9.6243 N.am    1  UNL1       -0.2810
     25 O           8.1494   41.7897   11.4487 O.2     1  UNL1       -0.2733
     26 H           7.1448   43.2911    8.8133 H       1  UNL1        0.1550
     27 C           5.6835   42.3457    9.9377 C.ar    1  UNL1        0.0781
     28 C           4.5800   42.8542    9.2344 C.ar    1  UNL1        0.0170
     29 C           3.2832   42.4519    9.5637 C.ar    1  UNL1        0.0014
     30 C           3.0780   41.5395   10.6013 C.ar    1  UNL1        0.0024
     31 C           4.1698   41.0313   11.3093 C.ar    1  UNL1        0.0309
     32 C           5.4686   41.4319   10.9807 C.ar    1  UNL1        0.1535
     33 F           6.5174   40.9271   11.6768 F       1  UNL1       -0.2029
@<TRIPOS>BOND
     1     7     8    1
     2     8    13   ar
     3     9    10   ar
     4    10    14    1
     5    11    12   ar
     6     1    12    1
     7     1     2    1
     8     2     3    1
     9     3     4    1
    10     4     6    1
    11     5     6    1
    12     5     1    1
    13    22     6    1
    14    22    23    1
    15    23    24   am
    16    28    29   ar
    17    30    31   ar
    18    32    33    1
    19    32    27   ar
    20    17    20   ar
    21    18    21   ar
    22    19    16   ar
    23    24    27    1
    24    14    16    1
    25     8     9   ar
    26    10    11   ar
    27    12    13   ar
    28    23    25    2
    29    27    28   ar
    30    29    30   ar
    31    31    32   ar
    32    16    20   ar
    33    17    18   ar
    34    19    21   ar
    35    24    26    1
    36    14    15    1
@<TRIPOS>MOLECULE
MolPort-020-292-464 MCULE-7546997450 PubChem-110264932
 33 36 0 0 0
SMALL
GASTEIGER

@<TRIPOS>ATOM
      1 C           9.5180   40.5784    7.4727 C.3     1  UNL1        0.0563
      2 C           9.4073   39.7274    6.2062 C.3     1  UNL1        0.0087
      3 C           7.9443   39.5447    5.7930 C.3     1  UNL1        0.0178
      4 C           7.1025   40.8010    6.0525 C.3     1  UNL1        0.0725
      5 C           8.7537   41.9105    7.3538 C.3     1  UNL1        0.0784
      6 N           7.9513   41.9889    6.1298 N.3     1  UNL1       -0.2647
      7 C          13.2983   39.9859   10.6013 C.3     1  UNL1        0.0521
      8 C          12.7678   40.5346    9.3260 C.ar    1  UNL1        0.0602
      9 C          13.6024   41.2714    8.4843 C.ar    1  UNL1        0.0294
     10 C          13.0935   41.7920    7.2874 C.ar    1  UNL1        0.0518
     11 C          11.7550   41.5618    6.9603 C.ar    1  UNL1        0.0294
     12 C          10.9475   40.8202    7.8264 C.ar    1  UNL1        0.0608
     13 N          11.4687   40.3256    8.9840 N.ar    1  UNL1       -0.2539
     14 N          13.9044   42.5511    6.3795 N.pl3   1  UNL1       -0.2966
     15 H          13.5280   42.7065    5.4832 H       1  UNL1        0.1537
     16 C          15.2012   43.1089    6.6302 C.ar    1  UNL1        0.1516
     17 C          17.3023   43.0589    7.7308 C.ar    1  UNL1        0.1210
     18 C          17.6777   44.2290    7.0692 C.ar    1  UNL1        0.1196
     19 C          15.5807   44.2797    5.9696 C.ar    1  UNL1        0.1332
     20 N          16.0744   42.5254    7.4972 N.ar    1  UNL1       -0.2258
     21 N          16.8087   44.8136    6.2026 N.ar    1  UNL1       -0.2378
     22 C           7.0678   43.1347    6.2817 C.3     1  UNL1        0.1588
     23 C           6.3835   43.1234    7.6131 C.2     1  UNL1        0.2425
     24 N           5.4775   42.0635    7.9570 N.am    1  UNL1       -0.2810
     25 O           6.6116   44.0653    8.4169 O.2     1  UNL1       -0.2733
     26 H           5.3116   41.3838    7.2643 H       1  UNL1        0.1550
     27 C           4.7884   41.8906    9.2041 C.ar    1  UNL1        0.0781
     28 C           3.4370   42.2402    9.3537 C.ar    1  UNL1        0.0170
     29 C           2.7918   42.0668   10.5807 C.ar    1  UNL1        0.0014
     30 C           3.4930   41.5446   11.6701 C.ar    1  UNL1        0.0024
     31 C           4.8392   41.1978   11.5316 C.ar    1  UNL1        0.0309
     32 C           5.4866   41.3696   10.3042 C.ar    1  UNL1        0.1535
     33 F           6.7932   41.0257   10.1865 F       1  UNL1       -0.2029
@<TRIPOS>BOND
     1     7     8    1
     2     8    13   ar
     3     9    10   ar
     4    10    14    1
     5    11    12   ar
     6     1    12    1
     7     1     2    1
     8     2     3    1
     9     3     4    1
    10     4     6    1
    11     5     6    1
    12     5     1    1
    13    22     6    1
    14    22    23    1
    15    23    24   am
    16    28    29   ar
    17    30    31   ar
    18    32    33    1
    19    32    27   ar
    20    17    20   ar
    21    18    21   ar
    22    19    16   ar
    23    24    27    1
    24    14    16    1
    25     8     9   ar
    26    10    11   ar
    27    12    13   ar
    28    23    25    2
    29    27    28   ar
    30    29    30   ar
    31    31    32   ar
    32    16    20   ar
    33    17    18   ar
    34    19    21   ar
    35    24    26    1
    36    14    15    1
@<TRIPOS>MOLECULE
MolPort-020-292-464 MCULE-7546997450 PubChem-110264932
 33 36 0 0 0
SMALL
GASTEIGER

@<TRIPOS>ATOM
      1 C          10.3429   41.8500   10.8448 C.3     1  UNL1        0.0563
      2 C           9.6975   40.9975   11.9391 C.3     1  UNL1        0.0087
      3 C           8.3444   41.5769   12.3607 C.3     1  UNL1        0.0178
      4 C           7.5709   42.1753   11.1784 C.3     1  UNL1        0.0725
      5 C           9.3948   42.0956    9.6559 C.3     1  UNL1        0.0784
      6 N           8.0361   41.6097    9.9129 N.3     1  UNL1       -0.2647
      7 C          14.2242   38.9121   11.7019 C.3     1  UNL1        0.0521
      8 C          13.4880   39.8244   10.7883 C.ar    1  UNL1        0.0602
      9 C          14.0014   40.1040    9.5210 C.ar    1  UNL1        0.0294
     10 C          13.3060   40.9707    8.6680 C.ar    1  UNL1        0.0518
     11 C          12.1077   41.5397    9.1060 C.ar    1  UNL1        0.0294
     12 C          11.6228   41.2383   10.3813 C.ar    1  UNL1        0.0608
     13 N          12.3198   40.3919   11.1901 N.ar    1  UNL1       -0.2539
     14 N          13.7807   41.2905    7.3525 N.pl3   1  UNL1       -0.2966
     15 H          13.7431   40.5663    6.6866 H       1  UNL1        0.1537
     16 C          14.3034   42.5458    6.8980 C.ar    1  UNL1        0.1516
     17 C          16.0174   44.1855    6.8578 C.ar    1  UNL1        0.1210
     18 C          15.2519   44.9659    5.9903 C.ar    1  UNL1        0.1196
     19 C          13.5402   43.3295    6.0294 C.ar    1  UNL1        0.1332
     20 N          15.5273   42.9946    7.2919 N.ar    1  UNL1       -0.2258
     21 N          14.0300   44.5205    5.5947 N.ar    1  UNL1       -0.2378
     22 C           7.1903   42.1589    8.8643 C.3     1  UNL1        0.1588
     23 C           7.7341   41.8464    7.5050 C.2     1  UNL1        0.2425
     24 N           8.7147   40.8112    7.3335 N.am    1  UNL1       -0.2810
     25 O           7.3215   42.5155    6.5215 O.2     1  UNL1       -0.2733
     26 H           9.0251   40.3588    8.1510 H       1  UNL1        0.1550
     27 C           9.2899   40.3667    6.0960 C.ar    1  UNL1        0.0781
     28 C          10.5485   40.8154    5.6654 C.ar    1  UNL1        0.0170
     29 C          11.0828   40.3710    4.4534 C.ar    1  UNL1        0.0014
     30 C          10.3618   39.4759    3.6595 C.ar    1  UNL1        0.0024
     31 C           9.1068   39.0272    4.0780 C.ar    1  UNL1        0.0309
     32 C           8.5706   39.4700    5.2912 C.ar    1  UNL1        0.1535
     33 F           7.3519   39.0228    5.6834 F       1  UNL1       -0.2029
@<TRIPOS>BOND
     1     7     8    1
     2     8    13   ar
     3     9    10   ar
     4    10    14    1
     5    11    12   ar
     6     1    12    1
     7     1     2    1
     8     2     3    1
     9     3     4    1
    10     4     6    1
    11     5     6    1
    12     5     1    1
    13    22     6    1
    14    22    23    1
    15    23    24   am
    16    28    29   ar
    17    30    31   ar
    18    32    33    1
    19    32    27   ar
    20    17    20   ar
    21    18    21   ar
    22    19    16   ar
    23    24    27    1
    24    14    16    1
    25     8     9   ar
    26    10    11   ar
    27    12    13   ar
    28    23    25    2
    29    27    28   ar
    30    29    30   ar
    31    31    32   ar
    32    16    20   ar
    33    17    18   ar
    34    19    21   ar
    35    24    26    1
    36    14    15    1
@<TRIPOS>MOLECULE
MolPort-020-292-464 MCULE-7546997450 PubChem-110264932
 33 36 0 0 0
SMALL
GASTEIGER

@<TRIPOS>ATOM
      1 C          13.8378   38.3069   10.5874 C.3     1  UNL1        0.0563
      2 C          13.6221   36.8147   10.8473 C.3     1  UNL1        0.0087
      3 C          12.1298   36.4758   10.8978 C.3     1  UNL1        0.0178
      4 C          11.3104   37.2930    9.8905 C.3     1  UNL1        0.0725
      5 C          13.0635   38.8058    9.3528 C.3     1  UNL1        0.0784
      6 N          12.1603   37.7878    8.8085 N.3     1  UNL1       -0.2647
      7 C          18.5568   36.9050   11.0295 C.3     1  UNL1        0.0521
      8 C          17.5610   37.9473   10.6677 C.ar    1  UNL1        0.0602
      9 C          17.9922   39.1986   10.2249 C.ar    1  UNL1        0.0294
     10 C          17.0480   40.1788    9.8928 C.ar    1  UNL1        0.0518
     11 C          15.6882   39.8816   10.0128 C.ar    1  UNL1        0.0294
     12 C          15.2916   38.6186   10.4598 C.ar    1  UNL1        0.0608
     13 N          16.2316   37.6842   10.7758 N.ar    1  UNL1       -0.2539
     14 N          17.4307   41.4802    9.4260 N.pl3   1  UNL1       -0.2966
     15 H          18.2656   41.8486    9.7955 H       1  UNL1        0.1537
     16 C          16.7345   42.3048    8.4821 C.ar    1  UNL1        0.1516
     17 C          14.9133   42.6881    7.0109 C.ar    1  UNL1        0.1210
     18 C          15.4450   43.9342    6.6759 C.ar    1  UNL1        0.1196
     19 C          17.2634   43.5528    8.1446 C.ar    1  UNL1        0.1332
     20 N          15.5686   41.9020    7.9051 N.ar    1  UNL1       -0.2258
     21 N          16.6083   44.3395    7.2505 N.ar    1  UNL1       -0.2378
     22 C          11.2905   38.4651    7.8592 C.3     1  UNL1        0.1588
     23 C          11.0957   39.9030    8.2273 C.2     1  UNL1        0.2425
     24 N           9.9124   40.3220    8.9250 N.am    1  UNL1       -0.2810
     25 O          11.9841   40.7344    7.9037 O.2     1  UNL1       -0.2733
     26 H           9.2391   39.6272    9.1069 H       1  UNL1        0.1550
     27 C           9.6081   41.6471    9.3850 C.ar    1  UNL1        0.0781
     28 C           8.6690   42.4576    8.7276 C.ar    1  UNL1        0.0170
     29 C           8.3957   43.7461    9.1934 C.ar    1  UNL1        0.0014
     30 C           9.0610   44.2368   10.3193 C.ar    1  UNL1        0.0024
     31 C          10.0001   43.4389   10.9774 C.ar    1  UNL1        0.0309
     32 C          10.2745   42.1486   10.5135 C.ar    1  UNL1        0.1535
     33 F          11.1874   41.3865   11.1655 F       1  UNL1       -0.2029
@<TRIPOS>BOND
     1     7     8    1
     2     8    13   ar
     3     9    10   ar
     4    10    14    1
     5    11    12   ar
     6     1    12    1
     7     1     2    1
     8     2     3    1
     9     3     4    1
    10     4     6    1
    11     5     6    1
    12     5     1    1
    13    22     6    1
    14    22    23    1
    15    23    24   am
    16    28    29   ar
    17    30    31   ar
    18    32    33    1
    19    32    27   ar
    20    17    20   ar
    21    18    21   ar
    22    19    16   ar
    23    24    27    1
    24    14    16    1
    25     8     9   ar
    26    10    11   ar
    27    12    13   ar
    28    23    25    2
    29    27    28   ar
    30    29    30   ar
    31    31    32   ar
    32    16    20   ar
    33    17    18   ar
    34    19    21   ar
    35    24    26    1
    36    14    15    1
@<TRIPOS>MOLECULE
MolPort-020-292-464 MCULE-7546997450 PubChem-110264932
 33 36 0 0 0
SMALL
GASTEIGER

@<TRIPOS>ATOM
      1 C          13.7411   38.5658   10.3633 C.3     1  UNL1        0.0563
      2 C          13.1800   38.2293    8.9804 C.3     1  UNL1        0.0087
      3 C          11.6618   38.0382    9.0349 C.3     1  UNL1        0.0178
      4 C          10.9861   39.0038   10.0174 C.3     1  UNL1        0.0725
      5 C          13.0073   39.7488   11.0228 C.3     1  UNL1        0.0784
      6 N          11.8296   40.1731   10.2604 N.3     1  UNL1       -0.2647
      7 C          18.3913   37.0037   10.9678 C.3     1  UNL1        0.0521
      8 C          17.4447   38.0808   10.5771 C.ar    1  UNL1        0.0602
      9 C          17.9335   39.3194   10.1590 C.ar    1  UNL1        0.0294
     10 C          17.0353   40.3327    9.7995 C.ar    1  UNL1        0.0518
     11 C          15.6629   40.0807    9.8676 C.ar    1  UNL1        0.0294
     12 C          15.2082   38.8293   10.2910 C.ar    1  UNL1        0.0608
     13 N          16.1042   37.8620   10.6347 N.ar    1  UNL1       -0.2539
     14 N          17.4781   41.6231    9.3560 N.pl3   1  UNL1       -0.2966
     15 H          18.3020   41.9682    9.7699 H       1  UNL1        0.1537
     16 C          16.8561   42.4670    8.3779 C.ar    1  UNL1        0.1516
     17 C          15.0820   42.9413    6.8760 C.ar    1  UNL1        0.1210
     18 C          15.7124   44.1298    6.5051 C.ar    1  UNL1        0.1196
     19 C          17.4840   43.6576    8.0044 C.ar    1  UNL1        0.1332
     20 N          15.6667   42.1373    7.8027 N.ar    1  UNL1       -0.2258
     21 N          16.8996   44.4622    7.0779 N.ar    1  UNL1       -0.2378
     22 C          11.0754   41.0710   11.1214 C.3     1  UNL1        0.1588
     23 C           9.8285   41.5535   10.4480 C.2     1  UNL1        0.2425
     24 N           9.8991   42.2270    9.1815 N.am    1  UNL1       -0.2810
     25 O           8.7225   41.3653   11.0194 O.2     1  UNL1       -0.2733
     26 H          10.7994   42.3798    8.8136 H       1  UNL1        0.1550
     27 C           8.7954   42.7008    8.3957 C.ar    1  UNL1        0.0781
     28 C           8.3862   42.0401    7.2265 C.ar    1  UNL1        0.0170
     29 C           7.3120   42.5260    6.4770 C.ar    1  UNL1        0.0014
     30 C           6.6389   43.6788    6.8885 C.ar    1  UNL1        0.0024
     31 C           7.0418   44.3452    8.0483 C.ar    1  UNL1        0.0309
     32 C           8.1161   43.8599    8.8005 C.ar    1  UNL1        0.1535
     33 F           8.4927   44.5178    9.9251 F       1  UNL1       -0.2029
@<TRIPOS>BOND
     1     7     8    1
     2     8    13   ar
     3     9    10   ar
     4    10    14    1
     5    11    12   ar
     6     1    12    1
     7     1     2    1
     8     2     3    1
     9     3     4    1
    10     4     6    1
    11     5     6    1
    12     5     1    1
    13    22     6    1
    14    22    23    1
    15    23    24   am
    16    28    29   ar
    17    30    31   ar
    18    32    33    1
    19    32    27   ar
    20    17    20   ar
    21    18    21   ar
    22    19    16   ar
    23    24    27    1
    24    14    16    1
    25     8     9   ar
    26    10    11   ar
    27    12    13   ar
    28    23    25    2
    29    27    28   ar
    30    29    30   ar
    31    31    32   ar
    32    16    20   ar
    33    17    18   ar
    34    19    21   ar
    35    24    26    1
    36    14    15    1
@<TRIPOS>MOLECULE
MolPort-020-292-464 MCULE-7546997450 PubChem-110264932
 33 36 0 0 0
SMALL
GASTEIGER

@<TRIPOS>ATOM
      1 C          11.6962   39.9827    8.9068 C.3     1  UNL1        0.0563
      2 C          11.3037   38.5554    8.5202 C.3     1  UNL1        0.0087
      3 C           9.8345   38.4857    8.0950 C.3     1  UNL1        0.0178
      4 C           9.3910   39.7322    7.3180 C.3     1  UNL1        0.0725
      5 C          11.3347   41.0074    7.8150 C.3     1  UNL1        0.0784
      6 N          10.5425   40.4168    6.7324 N.3     1  UNL1       -0.2647
      7 C          15.5087   38.5549   11.7097 C.3     1  UNL1        0.0521
      8 C          14.9835   39.3746   10.5867 C.ar    1  UNL1        0.0602
      9 C          15.8441   40.2083    9.8712 C.ar    1  UNL1        0.0294
     10 C          15.3407   40.9839    8.8188 C.ar    1  UNL1        0.0518
     11 C          13.9812   40.9061    8.5064 C.ar    1  UNL1        0.0294
     12 C          13.1479   40.0610    9.2438 C.ar    1  UNL1        0.0608
     13 N          13.6645   39.3179   10.2623 N.ar    1  UNL1       -0.2539
     14 N          16.1774   41.8540    8.0437 N.pl3   1  UNL1       -0.2966
     15 H          17.1459   41.6828    8.0887 H       1  UNL1        0.1537
     16 C          15.7624   42.9447    7.2108 C.ar    1  UNL1        0.1516
     17 C          14.1573   43.9913    5.8121 C.ar    1  UNL1        0.1210
     18 C          15.0236   45.0690    5.6229 C.ar    1  UNL1        0.1196
     19 C          16.6266   44.0253    7.0193 C.ar    1  UNL1        0.1332
     20 N          14.5451   42.9546    6.6006 N.ar    1  UNL1       -0.2258
     21 N          16.2393   45.0626    6.2311 N.ar    1  UNL1       -0.2378
     22 C          10.0241   41.5229    5.9423 C.3     1  UNL1        0.1588
     23 C           8.5921   41.8063    6.2740 C.2     1  UNL1        0.2425
     24 N           8.2557   42.6573    7.3808 N.am    1  UNL1       -0.2810
     25 O           7.6931   41.2758    5.5698 O.2     1  UNL1       -0.2733
     26 H           9.0071   43.0021    7.9154 H       1  UNL1        0.1550
     27 C           6.9396   43.0581    7.7898 C.ar    1  UNL1        0.0781
     28 C           6.3251   44.2084    7.2702 C.ar    1  UNL1        0.0170
     29 C           5.0451   44.5790    7.6899 C.ar    1  UNL1        0.0014
     30 C           4.3690   43.8040    8.6352 C.ar    1  UNL1        0.0024
     31 C           4.9744   42.6600    9.1608 C.ar    1  UNL1        0.0309
     32 C           6.2551   42.2867    8.7414 C.ar    1  UNL1        0.1535
     33 F           6.8273   41.1719    9.2602 F       1  UNL1       -0.2029
@<TRIPOS>BOND
     1     7     8    1
     2     8    13   ar
     3     9    10   ar
     4    10    14    1
     5    11    12   ar
     6     1    12    1
     7     1     2    1
     8     2     3    1
     9     3     4    1
    10     4     6    1
    11     5     6    1
    12     5     1    1
    13    22     6    1
    14    22    23    1
    15    23    24   am
    16    28    29   ar
    17    30    31   ar
    18    32    33    1
    19    32    27   ar
    20    17    20   ar
    21    18    21   ar
    22    19    16   ar
    23    24    27    1
    24    14    16    1
    25     8     9   ar
    26    10    11   ar
    27    12    13   ar
    28    23    25    2
    29    27    28   ar
    30    29    30   ar
    31    31    32   ar
    32    16    20   ar
    33    17    18   ar
    34    19    21   ar
    35    24    26    1
    36    14    15    1
@<TRIPOS>MOLECULE
MolPort-020-292-464 MCULE-7546997450 PubChem-110264932
 33 36 0 0 0
SMALL
GASTEIGER

@<TRIPOS>ATOM
      1 C          14.0198   39.7436    9.2543 C.3     1  UNL1        0.0563
      2 C          13.4131   40.1840   10.5880 C.3     1  UNL1        0.0087
      3 C          13.6319   39.1216   11.6687 C.3     1  UNL1        0.0178
      4 C          14.9944   38.4282   11.5392 C.3     1  UNL1        0.0725
      5 C          15.4936   39.3173    9.3919 C.3     1  UNL1        0.0784
      6 N          15.9328   39.2614   10.7890 N.3     1  UNL1       -0.2647
      7 C          15.9529   43.5335    6.7384 C.3     1  UNL1        0.0521
      8 C          14.8012   42.6349    7.0120 C.ar    1  UNL1        0.0602
      9 C          13.6034   42.8066    6.3165 C.ar    1  UNL1        0.0294
     10 C          12.5194   41.9607    6.5850 C.ar    1  UNL1        0.0518
     11 C          12.6610   40.9585    7.5479 C.ar    1  UNL1        0.0294
     12 C          13.8744   40.8150    8.2257 C.ar    1  UNL1        0.0608
     13 N          14.9122   41.6518    7.9445 N.ar    1  UNL1       -0.2539
     14 N          11.2662   42.0846    5.8980 N.pl3   1  UNL1       -0.2966
     15 H          10.8877   42.9916    5.8400 H       1  UNL1        0.1537
     16 C          10.5026   41.0366    5.2862 C.ar    1  UNL1        0.1516
     17 C          10.3118   39.2295    3.7611 C.ar    1  UNL1        0.1210
     18 C           8.9843   39.0415    4.1485 C.ar    1  UNL1        0.1196
     19 C           9.1737   40.8452    5.6716 C.ar    1  UNL1        0.1332
     20 N          11.0406   40.2212    4.3375 N.ar    1  UNL1       -0.2258
     21 N           8.4444   39.8533    5.0957 N.ar    1  UNL1       -0.2378
     22 C          17.2144   38.5731   10.7972 C.3     1  UNL1        0.1588
     23 C          17.1464   37.2842   10.0388 C.2     1  UNL1        0.2425
     24 N          18.0892   37.0048    8.9921 N.am    1  UNL1       -0.2810
     25 O          16.2418   36.4588   10.3314 O.2     1  UNL1       -0.2733
     26 H          18.7414   37.7129    8.7863 H       1  UNL1        0.1550
     27 C          18.1807   35.8020    8.2144 C.ar    1  UNL1        0.0781
     28 C          17.5927   35.6998    6.9437 C.ar    1  UNL1        0.0170
     29 C          17.6921   34.5150    6.2100 C.ar    1  UNL1        0.0014
     30 C          18.3782   33.4206    6.7417 C.ar    1  UNL1        0.0024
     31 C          18.9629   33.5117    8.0071 C.ar    1  UNL1        0.0309
     32 C          18.8654   34.6970    8.7427 C.ar    1  UNL1        0.1535
     33 F          19.4408   34.7692    9.9687 F       1  UNL1       -0.2029
@<TRIPOS>BOND
     1     7     8    1
     2     8    13   ar
     3     9    10   ar
     4    10    14    1
     5    11    12   ar
     6     1    12    1
     7     1     2    1
     8     2     3    1
     9     3     4    1
    10     4     6    1
    11     5     6    1
    12     5     1    1
    13    22     6    1
    14    22    23    1
    15    23    24   am
    16    28    29   ar
    17    30    31   ar
    18    32    33    1
    19    32    27   ar
    20    17    20   ar
    21    18    21   ar
    22    19    16   ar
    23    24    27    1
    24    14    16    1
    25     8     9   ar
    26    10    11   ar
    27    12    13   ar
    28    23    25    2
    29    27    28   ar
    30    29    30   ar
    31    31    32   ar
    32    16    20   ar
    33    17    18   ar
    34    19    21   ar
    35    24    26    1
    36    14    15    1
