@<TRIPOS>MOLECULE
MolPort-005-144-839 12074362 CHEMBL1581486 CSSS00160033359 MCULE-7110591329 PubChem-24790783 ZINC000012074362
 34 37 0 0 0
SMALL
GASTEIGER

@<TRIPOS>ATOM
      1 C           9.4763   41.2160   12.5745 C.ar    1  UNL1        0.1230
      2 C           8.4371   41.8162   11.8710 C.ar    1  UNL1        0.0565
      3 C           8.8971   41.8260   10.5675 C.ar    1  UNL1        0.1325
      4 N          10.1157   41.2723   10.5123 N.ar    1  UNL1       -0.2394
      5 N          10.4776   40.8981   11.7265 N.ar    1  UNL1       -0.1666
      6 C          12.6406   39.6561    8.1950 C.3     1  UNL1        0.0744
      7 C          11.7539   39.8267    9.4277 C.3     1  UNL1        0.0418
      8 C          10.9304   41.1008    9.3159 C.3     1  UNL1        0.1093
      9 C          11.8535   42.2973    9.1416 C.3     1  UNL1        0.0418
     10 C          12.7444   42.1117    7.9145 C.3     1  UNL1        0.0744
     11 N          13.4769   40.8365    7.9275 N.3     1  UNL1       -0.2688
     12 C          14.7415   40.8767    8.6803 C.3     1  UNL1        0.1015
     13 C          16.2962   43.7019    6.6665 C.ar    1  UNL1        0.1386
     14 C          15.3852   42.7547    7.1437 C.ar    1  UNL1        0.0362
     15 C          15.7387   41.8848    8.1821 C.ar    1  UNL1        0.0244
     16 C          17.0329   41.9417    8.7236 C.ar    1  UNL1        0.1376
     17 C          17.9472   42.8864    8.2499 C.ar    1  UNL1        0.0325
     18 C          17.5810   43.7657    7.2283 C.ar    1  UNL1        0.0392
     19 F          17.4085   41.0885    9.7089 F       1  UNL1       -0.2045
     20 C          14.5770   44.5849    5.1234 C.3     1  UNL1        0.2525
     21 O          15.9004   44.5638    5.6405 O.3     1  UNL1       -0.4714
     22 C           8.1076   43.7236    9.0630 C.2     1  UNL1        0.2272
     23 O           8.6322   44.6203    9.7756 O.2     1  UNL1       -0.2747
     24 N           8.2072   42.3409    9.4211 N.am    1  UNL1       -0.2695
     25 H           7.7648   41.6891    8.8305 H       1  UNL1        0.1562
     26 C           7.3434   44.1094    7.8472 C.3     1  UNL1        0.0858
     27 C           6.0571   43.3056    7.7711 C.3     1  UNL1        0.0142
     28 C           5.0932   43.7385    8.8664 C.3     1  UNL1        0.0269
     29 C           4.5375   42.5629    9.6012 C.ar    1  UNL1       -0.0222
     30 C           3.3148   42.0121    9.2019 C.ar    1  UNL1       -0.0043
     31 C           2.7916   40.9040    9.8755 C.ar    1  UNL1       -0.0003
     32 C           3.4923   40.3421   10.9473 C.ar    1  UNL1       -0.0000
     33 C           4.7174   40.8867   11.3445 C.ar    1  UNL1       -0.0003
     34 C           5.2411   41.9945   10.6710 C.ar    1  UNL1       -0.0043
@<TRIPOS>BOND
     1    20    21    1
     2    13    21    1
     3    14    15   ar
     4    12    15    1
     5    12    11    1
     6     6    11    1
     7     6     7    1
     8     7     8    1
     9     8     9    1
    10     8     4    1
    11     9    10    1
    12    10    11    1
    13     1     2   ar
    14     3    24    1
    15     3     4   ar
    16    26    22    1
    17    26    27    1
    18    27    28    1
    19    28    29    1
    20    30    31   ar
    21    32    33   ar
    22    34    29   ar
    23    16    19    1
    24    16    17   ar
    25    18    13   ar
    26     4     5   ar
    27    24    22   am
    28    13    14   ar
    29    15    16   ar
    30     1     5   ar
    31     2     3   ar
    32    22    23    2
    33    29    30   ar
    34    31    32   ar
    35    33    34   ar
    36    17    18   ar
    37    24    25    1
@<TRIPOS>MOLECULE
MolPort-005-144-839 12074362 CHEMBL1581486 CSSS00160033359 MCULE-7110591329 PubChem-24790783 ZINC000012074362
 34 37 0 0 0
SMALL
GASTEIGER

@<TRIPOS>ATOM
      1 C           6.7426   43.2594    6.5121 C.ar    1  UNL1        0.1230
      2 C           6.7153   43.4237    7.8932 C.ar    1  UNL1        0.0565
      3 C           7.9125   42.8686    8.3050 C.ar    1  UNL1        0.1325
      4 N           8.5903   42.4130    7.2431 N.ar    1  UNL1       -0.2394
      5 N           7.8884   42.6453    6.1481 N.ar    1  UNL1       -0.1666
      6 C          12.2573   41.9443    8.0739 C.3     1  UNL1        0.0744
      7 C          10.8766   42.5990    8.0724 C.3     1  UNL1        0.0418
      8 C           9.8940   41.7616    7.2681 C.3     1  UNL1        0.1093
      9 C          10.4110   41.5822    5.8487 C.3     1  UNL1        0.0418
     10 C          11.7966   40.9389    5.8610 C.3     1  UNL1        0.0744
     11 N          12.7521   41.6560    6.7187 N.3     1  UNL1       -0.2688
     12 C          13.4239   42.7865    6.0567 C.3     1  UNL1        0.1015
     13 C          16.6406   42.5477    8.0690 C.ar    1  UNL1        0.1386
     14 C          15.3568   42.2891    7.5794 C.ar    1  UNL1        0.0362
     15 C          14.8049   43.0856    6.5689 C.ar    1  UNL1        0.0244
     16 C          15.5349   44.1757    6.0691 C.ar    1  UNL1        0.1376
     17 C          16.8183   44.4385    6.5553 C.ar    1  UNL1        0.0325
     18 C          17.3718   43.6270    7.5484 C.ar    1  UNL1        0.0392
     19 F          15.0087   44.9801    5.1122 F       1  UNL1       -0.2045
     20 C          16.5330   40.5122    9.4697 C.3     1  UNL1        0.2525
     21 O          17.1636   41.7199    9.0658 O.3     1  UNL1       -0.4714
     22 C           7.8220   41.9602   10.6828 C.2     1  UNL1        0.2272
     23 O           6.8030   41.2526   10.4643 O.2     1  UNL1       -0.2747
     24 N           8.3927   42.7743    9.6525 N.am    1  UNL1       -0.2695
     25 H           9.1809   43.3147    9.8892 H       1  UNL1        0.1562
     26 C           8.4231   41.9765   12.0428 C.3     1  UNL1        0.0858
     27 C           9.5792   40.9936   12.1063 C.3     1  UNL1        0.0142
     28 C          10.4103   41.0663   10.8335 C.3     1  UNL1        0.0269
     29 C          11.3882   39.9401   10.7545 C.ar    1  UNL1       -0.0222
     30 C          11.0755   38.8036   10.0008 C.ar    1  UNL1       -0.0043
     31 C          11.9891   37.7488    9.9106 C.ar    1  UNL1       -0.0003
     32 C          13.2191   37.8306   10.5707 C.ar    1  UNL1       -0.0000
     33 C          13.5368   38.9679   11.3195 C.ar    1  UNL1       -0.0003
     34 C          12.6238   40.0229   11.4098 C.ar    1  UNL1       -0.0043
@<TRIPOS>BOND
     1    20    21    1
     2    13    21    1
     3    14    15   ar
     4    12    15    1
     5    12    11    1
     6     6    11    1
     7     6     7    1
     8     7     8    1
     9     8     9    1
    10     8     4    1
    11     9    10    1
    12    10    11    1
    13     1     2   ar
    14     3    24    1
    15     3     4   ar
    16    26    22    1
    17    26    27    1
    18    27    28    1
    19    28    29    1
    20    30    31   ar
    21    32    33   ar
    22    34    29   ar
    23    16    19    1
    24    16    17   ar
    25    18    13   ar
    26     4     5   ar
    27    24    22   am
    28    13    14   ar
    29    15    16   ar
    30     1     5   ar
    31     2     3   ar
    32    22    23    2
    33    29    30   ar
    34    31    32   ar
    35    33    34   ar
    36    17    18   ar
    37    24    25    1
@<TRIPOS>MOLECULE
MolPort-005-144-839 12074362 CHEMBL1581486 CSSS00160033359 MCULE-7110591329 PubChem-24790783 ZINC000012074362
 34 37 0 0 0
SMALL
GASTEIGER

@<TRIPOS>ATOM
      1 C           9.7602   41.1751   12.0969 C.ar    1  UNL1        0.1230
      2 C           8.6977   41.6869   11.3593 C.ar    1  UNL1        0.0565
      3 C           9.1651   41.6522   10.0588 C.ar    1  UNL1        0.1325
      4 N          10.4095   41.1566   10.0371 N.ar    1  UNL1       -0.2394
      5 N          10.7812   40.8633   11.2705 N.ar    1  UNL1       -0.1666
      6 C          13.5888   40.9019    7.9915 C.3     1  UNL1        0.0744
      7 C          12.7097   41.0649    9.2307 C.3     1  UNL1        0.0418
      8 C          11.2394   40.9638    8.8545 C.3     1  UNL1        0.1093
      9 C          10.9019   42.0147    7.8077 C.3     1  UNL1        0.0418
     10 C          11.7941   41.8515    6.5783 C.3     1  UNL1        0.0744
     11 N          13.2267   41.8317    6.9104 N.3     1  UNL1       -0.2688
     12 C          13.8379   43.1667    7.0179 C.3     1  UNL1        0.1015
     13 C          17.2677   42.0838    8.2500 C.ar    1  UNL1        0.1386
     14 C          15.8923   42.1097    7.9999 C.ar    1  UNL1        0.0362
     15 C          15.3185   43.1621    7.2766 C.ar    1  UNL1        0.0244
     16 C          16.1280   44.2187    6.8301 C.ar    1  UNL1        0.1376
     17 C          17.5031   44.1977    7.0777 C.ar    1  UNL1        0.0325
     18 C          18.0727   43.1340    7.7814 C.ar    1  UNL1        0.0392
     19 F          15.5900   45.2645    6.1544 F       1  UNL1       -0.2045
     20 C          17.0440   40.2383    9.8812 C.3     1  UNL1        0.2525
     21 O          17.8057   41.0078    8.9608 O.3     1  UNL1       -0.4714
     22 C           8.0652   43.4178    8.5890 C.2     1  UNL1        0.2272
     23 O           8.3134   44.3596    9.3880 O.2     1  UNL1       -0.2747
     24 N           8.4585   42.0732    8.8846 N.am    1  UNL1       -0.2695
     25 H           8.2241   41.3797    8.2263 H       1  UNL1        0.1562
     26 C           7.3216   43.7014    7.3329 C.3     1  UNL1        0.0858
     27 C           5.8440   43.4134    7.5334 C.3     1  UNL1        0.0142
     28 C           5.4306   43.7233    8.9648 C.3     1  UNL1        0.0269
     29 C           4.7517   42.5556    9.6025 C.ar    1  UNL1       -0.0222
     30 C           5.3594   41.9074   10.6834 C.ar    1  UNL1       -0.0043
     31 C           4.7266   40.8209   11.2951 C.ar    1  UNL1       -0.0003
     32 C           3.4829   40.3830   10.8295 C.ar    1  UNL1       -0.0000
     33 C           2.8705   41.0328    9.7534 C.ar    1  UNL1       -0.0003
     34 C           3.5026   42.1196    9.1416 C.ar    1  UNL1       -0.0043
@<TRIPOS>BOND
     1    20    21    1
     2    13    21    1
     3    14    15   ar
     4    12    15    1
     5    12    11    1
     6     6    11    1
     7     6     7    1
     8     7     8    1
     9     8     9    1
    10     8     4    1
    11     9    10    1
    12    10    11    1
    13     1     2   ar
    14     3    24    1
    15     3     4   ar
    16    26    22    1
    17    26    27    1
    18    27    28    1
    19    28    29    1
    20    30    31   ar
    21    32    33   ar
    22    34    29   ar
    23    16    19    1
    24    16    17   ar
    25    18    13   ar
    26     4     5   ar
    27    24    22   am
    28    13    14   ar
    29    15    16   ar
    30     1     5   ar
    31     2     3   ar
    32    22    23    2
    33    29    30   ar
    34    31    32   ar
    35    33    34   ar
    36    17    18   ar
    37    24    25    1
@<TRIPOS>MOLECULE
MolPort-005-144-839 12074362 CHEMBL1581486 CSSS00160033359 MCULE-7110591329 PubChem-24790783 ZINC000012074362
 34 37 0 0 0
SMALL
GASTEIGER

@<TRIPOS>ATOM
      1 C          10.3450   39.0119    3.6481 C.ar    1  UNL1        0.1230
      2 C           9.0979   38.8752    4.2489 C.ar    1  UNL1        0.0565
      3 C           9.2624   39.4973    5.4724 C.ar    1  UNL1        0.1325
      4 N          10.5136   39.9637    5.5795 N.ar    1  UNL1       -0.2394
      5 N          11.1805   39.6741    4.4764 N.ar    1  UNL1       -0.1666
      6 C          12.7765   42.3623    7.4460 C.3     1  UNL1        0.0744
      7 C          12.1577   41.6350    6.2530 C.3     1  UNL1        0.0418
      8 C          11.0718   40.6781    6.7209 C.3     1  UNL1        0.1093
      9 C          11.6527   39.6875    7.7185 C.3     1  UNL1        0.0418
     10 C          12.2800   40.4241    8.9009 C.3     1  UNL1        0.0744
     11 N          13.2584   41.4410    8.4868 N.3     1  UNL1       -0.2688
     12 C          14.6145   40.9143    8.2609 C.3     1  UNL1        0.1015
     13 C          16.4459   43.9775    6.9510 C.ar    1  UNL1        0.1386
     14 C          15.4749   42.9897    7.1410 C.ar    1  UNL1        0.0362
     15 C          15.6740   41.9635    8.0722 C.ar    1  UNL1        0.0244
     16 C          16.8761   41.9072    8.7952 C.ar    1  UNL1        0.1376
     17 C          17.8499   42.8920    8.6087 C.ar    1  UNL1        0.0325
     18 C          17.6360   43.9253    7.6936 C.ar    1  UNL1        0.0392
     19 F          17.1048   40.9051    9.6802 F       1  UNL1       -0.2045
     20 C          14.8946   45.3496    5.5991 C.3     1  UNL1        0.2525
     21 O          16.2032   44.9951    6.0246 O.3     1  UNL1       -0.4714
     22 C           7.2123   40.6060    6.4997 C.2     1  UNL1        0.2272
     23 O           7.0874   41.4380    5.5622 O.2     1  UNL1       -0.2747
     24 N           8.2713   39.6424    6.4981 N.am    1  UNL1       -0.2695
     25 H           8.3232   39.0280    7.2655 H       1  UNL1        0.1562
     26 C           6.2642   40.6465    7.6445 C.3     1  UNL1        0.0858
     27 C           6.9968   41.0727    8.9048 C.3     1  UNL1        0.0142
     28 C           6.0666   41.8513    9.8237 C.3     1  UNL1        0.0269
     29 C           5.3810   42.9602    9.0950 C.ar    1  UNL1       -0.0222
     30 C           6.1309   43.8325    8.2985 C.ar    1  UNL1       -0.0043
     31 C           5.4971   44.8666    7.6026 C.ar    1  UNL1       -0.0003
     32 C           4.1114   45.0278    7.6989 C.ar    1  UNL1       -0.0000
     33 C           3.3588   44.1538    8.4893 C.ar    1  UNL1       -0.0003
     34 C           3.9920   43.1194    9.1850 C.ar    1  UNL1       -0.0043
@<TRIPOS>BOND
     1    20    21    1
     2    13    21    1
     3    14    15   ar
     4    12    15    1
     5    12    11    1
     6     6    11    1
     7     6     7    1
     8     7     8    1
     9     8     9    1
    10     8     4    1
    11     9    10    1
    12    10    11    1
    13     1     2   ar
    14     3    24    1
    15     3     4   ar
    16    26    22    1
    17    26    27    1
    18    27    28    1
    19    28    29    1
    20    30    31   ar
    21    32    33   ar
    22    34    29   ar
    23    16    19    1
    24    16    17   ar
    25    18    13   ar
    26     4     5   ar
    27    24    22   am
    28    13    14   ar
    29    15    16   ar
    30     1     5   ar
    31     2     3   ar
    32    22    23    2
    33    29    30   ar
    34    31    32   ar
    35    33    34   ar
    36    17    18   ar
    37    24    25    1
@<TRIPOS>MOLECULE
MolPort-005-144-839 12074362 CHEMBL1581486 CSSS00160033359 MCULE-7110591329 PubChem-24790783 ZINC000012074362
 34 37 0 0 0
SMALL
GASTEIGER

@<TRIPOS>ATOM
      1 C          13.4383   38.9282   11.1247 C.ar    1  UNL1        0.1230
      2 C          13.8101   39.3996    9.8699 C.ar    1  UNL1        0.0565
      3 C          12.9453   40.4567    9.6562 C.ar    1  UNL1        0.1325
      4 N          12.1277   40.5937   10.7086 N.ar    1  UNL1       -0.2394
      5 N          12.4185   39.6698   11.6070 N.ar    1  UNL1       -0.1666
      6 C           8.6946   41.9737   11.5247 C.3     1  UNL1        0.0744
      7 C           9.8140   40.9413   11.3982 C.3     1  UNL1        0.0418
      8 C          11.0781   41.5937   10.8593 C.3     1  UNL1        0.1093
      9 C          10.7884   42.2473    9.5166 C.3     1  UNL1        0.0418
     10 C           9.6597   43.2682    9.6506 C.3     1  UNL1        0.0744
     11 N           8.4512   42.7060   10.2721 N.3     1  UNL1       -0.2688
     12 C           7.5501   42.0252    9.3277 C.3     1  UNL1        0.1015
     13 C           3.8804   43.0181    9.3617 C.ar    1  UNL1        0.1386
     14 C           5.0775   42.3444    9.6219 C.ar    1  UNL1        0.0362
     15 C           6.2752   42.7637    9.0306 C.ar    1  UNL1        0.0244
     16 C           6.2658   43.8491    8.1401 C.ar    1  UNL1        0.1376
     17 C           5.0718   44.5257    7.8764 C.ar    1  UNL1        0.0325
     18 C           3.8840   44.1156    8.4863 C.ar    1  UNL1        0.0392
     19 F           7.4080   44.2541    7.5311 F       1  UNL1       -0.2045
     20 C           2.6839   42.0968   11.3202 C.3     1  UNL1        0.2525
     21 O           2.7087   42.5800    9.9842 O.3     1  UNL1       -0.4714
     22 C          12.4616   40.9015    7.1954 C.2     1  UNL1        0.2272
     23 O          12.0894   39.7198    6.9675 O.2     1  UNL1       -0.2747
     24 N          12.8973   41.3018    8.4992 N.am    1  UNL1       -0.2695
     25 H          13.1883   42.2357    8.6105 H       1  UNL1        0.1562
     26 C          12.4808   41.8894    6.0842 C.3     1  UNL1        0.0858
     27 C          13.1816   43.1588    6.5361 C.3     1  UNL1        0.0142
     28 C          14.4484   43.3854    5.7239 C.3     1  UNL1        0.0269
     29 C          15.6658   43.3474    6.5884 C.ar    1  UNL1       -0.0222
     30 C          15.7477   42.4142    7.6276 C.ar    1  UNL1       -0.0043
     31 C          16.8881   42.3623    8.4352 C.ar    1  UNL1       -0.0003
     32 C          17.9506   43.2410    8.2023 C.ar    1  UNL1       -0.0000
     33 C          17.8740   44.1705    7.1605 C.ar    1  UNL1       -0.0003
     34 C          16.7341   44.2226    6.3525 C.ar    1  UNL1       -0.0043
@<TRIPOS>BOND
     1    20    21    1
     2    13    21    1
     3    14    15   ar
     4    12    15    1
     5    12    11    1
     6     6    11    1
     7     6     7    1
     8     7     8    1
     9     8     9    1
    10     8     4    1
    11     9    10    1
    12    10    11    1
    13     1     2   ar
    14     3    24    1
    15     3     4   ar
    16    26    22    1
    17    26    27    1
    18    27    28    1
    19    28    29    1
    20    30    31   ar
    21    32    33   ar
    22    34    29   ar
    23    16    19    1
    24    16    17   ar
    25    18    13   ar
    26     4     5   ar
    27    24    22   am
    28    13    14   ar
    29    15    16   ar
    30     1     5   ar
    31     2     3   ar
    32    22    23    2
    33    29    30   ar
    34    31    32   ar
    35    33    34   ar
    36    17    18   ar
    37    24    25    1
@<TRIPOS>MOLECULE
MolPort-005-144-839 12074362 CHEMBL1581486 CSSS00160033359 MCULE-7110591329 PubChem-24790783 ZINC000012074362
 34 37 0 0 0
SMALL
GASTEIGER

@<TRIPOS>ATOM
      1 C           8.8998   41.4249   13.2126 C.ar    1  UNL1        0.1230
      2 C           9.9662   41.2291   12.3411 C.ar    1  UNL1        0.0565
      3 C           9.4384   41.5670   11.1090 C.ar    1  UNL1        0.1325
      4 N           8.1575   41.9335   11.2492 N.ar    1  UNL1       -0.2394
      5 N           7.8197   41.8507   12.5237 N.ar    1  UNL1       -0.1666
      6 C           5.8806   41.5857    8.2406 C.3     1  UNL1        0.0744
      7 C           6.7914   41.1487    9.3871 C.3     1  UNL1        0.0418
      8 C           7.2612   42.3581   10.1811 C.3     1  UNL1        0.1093
      9 C           7.9786   43.3326    9.2593 C.3     1  UNL1        0.0418
     10 C           7.0647   43.7537    8.1098 C.3     1  UNL1        0.0744
     11 N           6.4973   42.6087    7.3818 N.3     1  UNL1       -0.2688
     12 C           7.3705   42.0767    6.3227 C.3     1  UNL1        0.1015
     13 C           9.7201   39.2481    7.2883 C.ar    1  UNL1        0.1386
     14 C           9.2092   40.5259    7.0414 C.ar    1  UNL1        0.0362
     15 C           7.8986   40.6929    6.5783 C.ar    1  UNL1        0.0244
     16 C           7.1034   39.5636    6.3259 C.ar    1  UNL1        0.1376
     17 C           7.6095   38.2843    6.5708 C.ar    1  UNL1        0.0325
     18 C           8.9107   38.1255    7.0532 C.ar    1  UNL1        0.0392
     19 F           5.8415   39.6992    5.8476 F       1  UNL1       -0.2045
     20 C          11.3296   38.5633    9.0367 C.3     1  UNL1        0.2525
     21 O          11.0272   39.1231    7.7661 O.3     1  UNL1       -0.4714
     22 C          11.0173   42.5523    9.3701 C.2     1  UNL1        0.2272
     23 O          11.2592   43.5844   10.0508 O.2     1  UNL1       -0.2747
     24 N          10.1229   41.5423    9.8496 N.am    1  UNL1       -0.2695
     25 H           9.9647   40.7657    9.2654 H       1  UNL1        0.1562
     26 C          11.6450   42.3956    8.0313 C.3     1  UNL1        0.0858
     27 C          13.0426   42.9898    8.0452 C.3     1  UNL1        0.0142
     28 C          14.0442   42.0086    7.4538 C.3     1  UNL1        0.0269
     29 C          15.3873   42.6379    7.2783 C.ar    1  UNL1       -0.0222
     30 C          15.5562   43.6563    6.3338 C.ar    1  UNL1       -0.0043
     31 C          16.8067   44.2604    6.1700 C.ar    1  UNL1       -0.0003
     32 C          17.8897   43.8498    6.9535 C.ar    1  UNL1       -0.0000
     33 C          17.7222   42.8365    7.9024 C.ar    1  UNL1       -0.0003
     34 C          16.4720   42.2324    8.0668 C.ar    1  UNL1       -0.0043
@<TRIPOS>BOND
     1    20    21    1
     2    13    21    1
     3    14    15   ar
     4    12    15    1
     5    12    11    1
     6     6    11    1
     7     6     7    1
     8     7     8    1
     9     8     9    1
    10     8     4    1
    11     9    10    1
    12    10    11    1
    13     1     2   ar
    14     3    24    1
    15     3     4   ar
    16    26    22    1
    17    26    27    1
    18    27    28    1
    19    28    29    1
    20    30    31   ar
    21    32    33   ar
    22    34    29   ar
    23    16    19    1
    24    16    17   ar
    25    18    13   ar
    26     4     5   ar
    27    24    22   am
    28    13    14   ar
    29    15    16   ar
    30     1     5   ar
    31     2     3   ar
    32    22    23    2
    33    29    30   ar
    34    31    32   ar
    35    33    34   ar
    36    17    18   ar
    37    24    25    1
@<TRIPOS>MOLECULE
MolPort-005-144-839 12074362 CHEMBL1581486 CSSS00160033359 MCULE-7110591329 PubChem-24790783 ZINC000012074362
 34 37 0 0 0
SMALL
GASTEIGER

@<TRIPOS>ATOM
      1 C          10.0555   41.1098   11.6568 C.ar    1  UNL1        0.1230
      2 C          11.0949   41.0382   10.7352 C.ar    1  UNL1        0.0565
      3 C          10.6345   41.7955    9.6744 C.ar    1  UNL1        0.1325
      4 N           9.4153   42.2749    9.9546 N.ar    1  UNL1       -0.2394
      5 N           9.0536   41.8641   11.1571 N.ar    1  UNL1       -0.1666
      6 C           6.4397   44.3659    8.8915 C.3     1  UNL1        0.0744
      7 C           7.3201   43.5149    9.8056 C.3     1  UNL1        0.0418
      8 C           8.6000   43.1157    9.0870 C.3     1  UNL1        0.1093
      9 C           8.2603   42.3650    7.8083 C.3     1  UNL1        0.0418
     10 C           7.3698   43.2186    6.9070 C.3     1  UNL1        0.0744
     11 N           6.1718   43.7204    7.5969 N.3     1  UNL1       -0.2688
     12 C           5.0417   42.7769    7.6032 C.3     1  UNL1        0.1015
     13 C           3.2896   42.3251   10.9468 C.ar    1  UNL1        0.1386
     14 C           3.6411   42.8170    9.6861 C.ar    1  UNL1        0.0362
     15 C           4.6838   42.2324    8.9576 C.ar    1  UNL1        0.0244
     16 C           5.4056   41.1650    9.5152 C.ar    1  UNL1        0.1376
     17 C           5.0584   40.6699   10.7750 C.ar    1  UNL1        0.0325
     18 C           4.0031   41.2439   11.4876 C.ar    1  UNL1        0.0392
     19 F           6.4399   40.6027    8.8416 F       1  UNL1       -0.2045
     20 C           1.6206   42.3287   12.7719 C.3     1  UNL1        0.2525
     21 O           2.2320   42.9244   11.6358 O.3     1  UNL1       -0.4714
     22 C          11.3836   41.1642    7.3232 C.2     1  UNL1        0.2272
     23 O          10.8187   40.0386    7.3539 O.2     1  UNL1       -0.2747
     24 N          11.3244   42.0529    8.4443 N.am    1  UNL1       -0.2695
     25 H          11.7971   42.9127    8.3637 H       1  UNL1        0.1562
     26 C          12.1531   41.5636    6.1152 C.3     1  UNL1        0.0858
     27 C          13.2718   42.5126    6.5080 C.3     1  UNL1        0.0142
     28 C          14.3486   41.7724    7.2881 C.3     1  UNL1        0.0269
     29 C          15.6151   42.5613    7.3545 C.ar    1  UNL1       -0.0222
     30 C          15.8171   43.6221    6.4647 C.ar    1  UNL1       -0.0043
     31 C          16.9940   44.3746    6.5265 C.ar    1  UNL1       -0.0003
     32 C          17.9695   44.0702    7.4810 C.ar    1  UNL1       -0.0000
     33 C          17.7675   43.0146    8.3755 C.ar    1  UNL1       -0.0003
     34 C          16.5907   42.2621    8.3144 C.ar    1  UNL1       -0.0043
@<TRIPOS>BOND
     1    20    21    1
     2    13    21    1
     3    14    15   ar
     4    12    15    1
     5    12    11    1
     6     6    11    1
     7     6     7    1
     8     7     8    1
     9     8     9    1
    10     8     4    1
    11     9    10    1
    12    10    11    1
    13     1     2   ar
    14     3    24    1
    15     3     4   ar
    16    26    22    1
    17    26    27    1
    18    27    28    1
    19    28    29    1
    20    30    31   ar
    21    32    33   ar
    22    34    29   ar
    23    16    19    1
    24    16    17   ar
    25    18    13   ar
    26     4     5   ar
    27    24    22   am
    28    13    14   ar
    29    15    16   ar
    30     1     5   ar
    31     2     3   ar
    32    22    23    2
    33    29    30   ar
    34    31    32   ar
    35    33    34   ar
    36    17    18   ar
    37    24    25    1
@<TRIPOS>MOLECULE
MolPort-005-144-839 12074362 CHEMBL1581486 CSSS00160033359 MCULE-7110591329 PubChem-24790783 ZINC000012074362
 34 37 0 0 0
SMALL
GASTEIGER

@<TRIPOS>ATOM
      1 C           4.3109   40.4986   11.2353 C.ar    1  UNL1        0.1230
      2 C           4.3301   40.9106    9.9068 C.ar    1  UNL1        0.0565
      3 C           5.5898   41.4605    9.7606 C.ar    1  UNL1        0.1325
      4 N           6.2586   41.3765   10.9184 N.ar    1  UNL1       -0.2394
      5 N           5.4906   40.7937   11.8217 N.ar    1  UNL1       -0.1666
      6 C           9.8583   42.2589   10.1305 C.3     1  UNL1        0.0744
      7 C           8.4221   41.8034    9.8759 C.3     1  UNL1        0.0418
      8 C           7.6160   41.8469   11.1651 C.3     1  UNL1        0.1093
      9 C           8.2826   40.9761   12.2193 C.3     1  UNL1        0.0418
     10 C           9.7214   41.4309   12.4576 C.3     1  UNL1        0.0744
     11 N          10.5084   41.5109   11.2178 N.3     1  UNL1       -0.2688
     12 C          11.1159   40.2341   10.8075 C.3     1  UNL1        0.1015
     13 C          13.7904   41.0667    8.2369 C.ar    1  UNL1        0.1386
     14 C          12.5514   40.9369    8.8716 C.ar    1  UNL1        0.0362
     15 C          12.4586   40.3604   10.1440 C.ar    1  UNL1        0.0244
     16 C          13.6173   39.8760   10.7717 C.ar    1  UNL1        0.1376
     17 C          14.8579   40.0031   10.1414 C.ar    1  UNL1        0.0325
     18 C          14.9465   40.5987    8.8811 C.ar    1  UNL1        0.0392
     19 F          13.5481   39.2855   11.9908 F       1  UNL1       -0.2045
     20 C          13.3598   42.9752    6.7240 C.3     1  UNL1        0.2525
     21 O          13.8443   41.6630    6.9744 O.3     1  UNL1       -0.4714
     22 C           5.9293   43.3906    8.1337 C.2     1  UNL1        0.2272
     23 O           5.2069   44.1848    8.7928 O.2     1  UNL1       -0.2747
     24 N           6.1359   42.0426    8.5697 N.am    1  UNL1       -0.2695
     25 H           6.7002   41.4671    8.0043 H       1  UNL1        0.1562
     26 C           6.5513   43.8503    6.8637 C.3     1  UNL1        0.0858
     27 C           7.1433   42.6647    6.1218 C.3     1  UNL1        0.0142
     28 C           8.4993   42.2948    6.7052 C.3     1  UNL1        0.0269
     29 C           9.1418   41.1879    5.9353 C.ar    1  UNL1       -0.0222
     30 C          10.3587   41.4143    5.2829 C.ar    1  UNL1       -0.0043
     31 C          10.9745   40.3814    4.5694 C.ar    1  UNL1       -0.0003
     32 C          10.3764   39.1188    4.5103 C.ar    1  UNL1       -0.0000
     33 C           9.1634   38.8880    5.1665 C.ar    1  UNL1       -0.0003
     34 C           8.5474   39.9204    5.8804 C.ar    1  UNL1       -0.0043
@<TRIPOS>BOND
     1    20    21    1
     2    13    21    1
     3    14    15   ar
     4    12    15    1
     5    12    11    1
     6     6    11    1
     7     6     7    1
     8     7     8    1
     9     8     9    1
    10     8     4    1
    11     9    10    1
    12    10    11    1
    13     1     2   ar
    14     3    24    1
    15     3     4   ar
    16    26    22    1
    17    26    27    1
    18    27    28    1
    19    28    29    1
    20    30    31   ar
    21    32    33   ar
    22    34    29   ar
    23    16    19    1
    24    16    17   ar
    25    18    13   ar
    26     4     5   ar
    27    24    22   am
    28    13    14   ar
    29    15    16   ar
    30     1     5   ar
    31     2     3   ar
    32    22    23    2
    33    29    30   ar
    34    31    32   ar
    35    33    34   ar
    36    17    18   ar
    37    24    25    1
@<TRIPOS>MOLECULE
MolPort-005-144-839 12074362 CHEMBL1581486 CSSS00160033359 MCULE-7110591329 PubChem-24790783 ZINC000012074362
 34 37 0 0 0
SMALL
GASTEIGER

@<TRIPOS>ATOM
      1 C           9.6975   39.1440    4.0908 C.ar    1  UNL1        0.1230
      2 C          11.0219   39.3892    4.4384 C.ar    1  UNL1        0.0565
      3 C          10.9271   40.4241    5.3499 C.ar    1  UNL1        0.1325
      4 N           9.6417   40.7597    5.5230 N.ar    1  UNL1       -0.2394
      5 N           8.8857   39.9881    4.7624 N.ar    1  UNL1       -0.1666
      6 C           9.2435   42.7654    8.7129 C.3     1  UNL1        0.0744
      7 C           9.7945   41.6968    7.7698 C.3     1  UNL1        0.0418
      8 C           9.1356   41.8055    6.4031 C.3     1  UNL1        0.1093
      9 C           7.6267   41.6765    6.5469 C.3     1  UNL1        0.0418
     10 C           7.0870   42.7405    7.5011 C.3     1  UNL1        0.0744
     11 N           7.7751   42.7446    8.8009 N.3     1  UNL1       -0.2688
     12 C           7.2315   41.7812    9.7724 C.3     1  UNL1        0.1015
     13 C           3.6266   42.9633    9.5248 C.ar    1  UNL1        0.1386
     14 C           4.9938   42.8059    9.2779 C.ar    1  UNL1        0.0362
     15 C           5.7641   41.9358   10.0586 C.ar    1  UNL1        0.0244
     16 C           5.1636   41.2428   11.1217 C.ar    1  UNL1        0.1376
     17 C           3.7976   41.3968   11.3728 C.ar    1  UNL1        0.0325
     18 C           3.0302   42.2502   10.5767 C.ar    1  UNL1        0.0392
     19 F           5.8960   40.4182   11.9113 F       1  UNL1       -0.2045
     20 C           3.4936   44.8331    7.9115 C.3     1  UNL1        0.2525
     21 O           2.8879   43.8281    8.7131 O.3     1  UNL1       -0.4714
     22 C          12.6867   40.5620    7.1863 C.2     1  UNL1        0.2272
     23 O          12.3405   39.4733    7.7170 O.2     1  UNL1       -0.2747
     24 N          12.0132   41.0682    6.0285 N.am    1  UNL1       -0.2695
     25 H          12.3220   41.9309    5.6684 H       1  UNL1        0.1562
     26 C          13.7914   41.3520    7.7916 C.3     1  UNL1        0.0858
     27 C          14.3638   40.6063    8.9846 C.3     1  UNL1        0.0142
     28 C          15.8715   40.7990    9.0595 C.3     1  UNL1        0.0269
     29 C          16.2991   42.0427    8.3516 C.ar    1  UNL1       -0.0222
     30 C          17.4587   42.7091    8.7627 C.ar    1  UNL1       -0.0043
     31 C          17.8744   43.8675    8.0990 C.ar    1  UNL1       -0.0003
     32 C          17.1332   44.3596    7.0201 C.ar    1  UNL1       -0.0000
     33 C          15.9774   43.6921    6.6032 C.ar    1  UNL1       -0.0003
     34 C          15.5616   42.5335    7.2663 C.ar    1  UNL1       -0.0043
@<TRIPOS>BOND
     1    20    21    1
     2    13    21    1
     3    14    15   ar
     4    12    15    1
     5    12    11    1
     6     6    11    1
     7     6     7    1
     8     7     8    1
     9     8     9    1
    10     8     4    1
    11     9    10    1
    12    10    11    1
    13     1     2   ar
    14     3    24    1
    15     3     4   ar
    16    26    22    1
    17    26    27    1
    18    27    28    1
    19    28    29    1
    20    30    31   ar
    21    32    33   ar
    22    34    29   ar
    23    16    19    1
    24    16    17   ar
    25    18    13   ar
    26     4     5   ar
    27    24    22   am
    28    13    14   ar
    29    15    16   ar
    30     1     5   ar
    31     2     3   ar
    32    22    23    2
    33    29    30   ar
    34    31    32   ar
    35    33    34   ar
    36    17    18   ar
    37    24    25    1
@<TRIPOS>MOLECULE
MolPort-005-144-839 12074362 CHEMBL1581486 CSSS00160033359 MCULE-7110591329 PubChem-24790783 ZINC000012074362
 34 37 0 0 0
SMALL
GASTEIGER

@<TRIPOS>ATOM
      1 C          15.5388   37.5213   11.6587 C.ar    1  UNL1        0.1230
      2 C          16.5236   38.2418   10.9909 C.ar    1  UNL1        0.0565
      3 C          15.8303   39.3116   10.4563 C.ar    1  UNL1        0.1325
      4 N          14.5350   39.2235   10.7870 N.ar    1  UNL1       -0.2394
      5 N          14.3467   38.1390   11.5177 N.ar    1  UNL1       -0.1666
      6 C          11.1363   40.8962   10.8743 C.3     1  UNL1        0.0744
      7 C          12.2582   39.9433   11.2846 C.3     1  UNL1        0.0418
      8 C          13.4844   40.1613   10.4113 C.3     1  UNL1        0.1093
      9 C          13.1160   39.9678    8.9481 C.3     1  UNL1        0.0418
     10 C          11.9854   40.9154    8.5509 C.3     1  UNL1        0.0744
     11 N          10.8181   40.8171    9.4401 N.3     1  UNL1       -0.2688
     12 C           9.8748   39.7463    9.0784 C.3     1  UNL1        0.1015
     13 C           8.2077   40.0532    5.6754 C.ar    1  UNL1        0.1386
     14 C           9.1168   39.7238    6.6853 C.ar    1  UNL1        0.0362
     15 C           8.8845   40.1144    8.0094 C.ar    1  UNL1        0.0244
     16 C           7.7454   40.8750    8.3180 C.ar    1  UNL1        0.1376
     17 C           6.8339   41.2071    7.3122 C.ar    1  UNL1        0.0325
     18 C           7.0607   40.7959    5.9967 C.ar    1  UNL1        0.0392
     19 F           7.5151   41.2915    9.5881 F       1  UNL1       -0.2045
     20 C           9.5757   38.8090    4.0331 C.3     1  UNL1        0.2525
     21 O           8.4660   39.6306    4.3688 O.3     1  UNL1       -0.4714
     22 C          17.7270   40.4524    9.1960 C.2     1  UNL1        0.2272
     23 O          18.5670   39.5573    9.4790 O.2     1  UNL1       -0.2747
     24 N          16.3758   40.3739    9.6632 N.am    1  UNL1       -0.2695
     25 H          15.7708   41.1113    9.4193 H       1  UNL1        0.1562
     26 C          18.1538   41.6276    8.3912 C.3     1  UNL1        0.0858
     27 C          17.4765   42.8826    8.9137 C.3     1  UNL1        0.0142
     28 C          17.4312   43.9525    7.8324 C.3     1  UNL1        0.0269
     29 C          16.1669   43.8761    7.0408 C.ar    1  UNL1       -0.0222
     30 C          15.3096   42.7833    7.2098 C.ar    1  UNL1       -0.0043
     31 C          14.1177   42.7081    6.4825 C.ar    1  UNL1       -0.0003
     32 C          13.7789   43.7277    5.5876 C.ar    1  UNL1       -0.0000
     33 C          14.6308   44.8240    5.4213 C.ar    1  UNL1       -0.0003
     34 C          15.8226   44.8999    6.1486 C.ar    1  UNL1       -0.0043
@<TRIPOS>BOND
     1    20    21    1
     2    13    21    1
     3    14    15   ar
     4    12    15    1
     5    12    11    1
     6     6    11    1
     7     6     7    1
     8     7     8    1
     9     8     9    1
    10     8     4    1
    11     9    10    1
    12    10    11    1
    13     1     2   ar
    14     3    24    1
    15     3     4   ar
    16    26    22    1
    17    26    27    1
    18    27    28    1
    19    28    29    1
    20    30    31   ar
    21    32    33   ar
    22    34    29   ar
    23    16    19    1
    24    16    17   ar
    25    18    13   ar
    26     4     5   ar
    27    24    22   am
    28    13    14   ar
    29    15    16   ar
    30     1     5   ar
    31     2     3   ar
    32    22    23    2
    33    29    30   ar
    34    31    32   ar
    35    33    34   ar
    36    17    18   ar
    37    24    25    1
