@<TRIPOS>MOLECULE
MolPort-046-673-186 MCULE-6479049078 PubChem-146048598
 32 35 0 0 0
SMALL
GASTEIGER

@<TRIPOS>ATOM
      1 C          10.1848   42.7230    9.9676 C.2     1  UNL1        0.4054
      2 O          10.8840   43.7688   10.0607 O.2     1  UNL1       -0.2261
      3 N          10.7825   41.4660    9.6267 N.am    1  UNL1       -0.2498
      4 H          10.1775   40.6912    9.5716 H       1  UNL1        0.1582
      5 C          14.1170   41.6476    7.9658 C.ar    1  UNL1        0.1404
      6 C          12.7676   41.8590    8.2673 C.ar    1  UNL1        0.0517
      7 C          12.1691   41.2176    9.3573 C.ar    1  UNL1        0.0562
      8 C          12.9378   40.3543   10.1522 C.ar    1  UNL1        0.0150
      9 C          14.2862   40.1371    9.8591 C.ar    1  UNL1        0.0044
     10 C          14.8756   40.7814    8.7690 C.ar    1  UNL1        0.0370
     11 O          14.6769   42.3082    6.8685 O.3     1  UNL1       -0.4678
     12 C          16.7988   43.4395    6.8887 C.3     1  UNL1        0.0596
     13 C          15.2914   43.5866    6.9723 C.3     1  UNL1        0.2632
     14 C          14.7918   44.4834    5.8898 C.2     1  UNL1        0.3544
     15 O          13.5422   44.2547    5.3306 O.3     1  UNL1       -0.4777
     16 O          15.4979   45.4402    5.4742 O.2     1  UNL1       -0.2463
     17 H          13.0145   43.5438    5.6375 H       1  UNL1        0.2952
     18 O           8.8108   42.7734   10.1964 O.3     1  UNL1       -0.4338
     19 C           8.0836   41.6447   10.6693 C.3     1  UNL1        0.2187
     20 C           6.9801   41.2474    9.6882 C.3     1  UNL1        0.0884
     21 C           6.9588   42.1510    8.4840 C.ar    1  UNL1       -0.0148
     22 C           5.7596   42.8337    8.3842 C.ar    1  UNL1       -0.0038
     23 C           5.5031   43.7264    7.3448 C.ar    1  UNL1       -0.0003
     24 C           6.5065   43.9201    6.3822 C.ar    1  UNL1       -0.0000
     25 C           7.7286   43.2252    6.4739 C.ar    1  UNL1       -0.0003
     26 C           7.9626   42.3298    7.5307 C.ar    1  UNL1       -0.0038
     27 C           4.9188   42.4382    9.4900 C.ar    1  UNL1       -0.0038
     28 C           5.6118   41.5176   10.2556 C.ar    1  UNL1       -0.0148
     29 C           5.0286   40.9501   11.3898 C.ar    1  UNL1       -0.0038
     30 C           3.7258   41.3430   11.7387 C.ar    1  UNL1       -0.0003
     31 C           3.0287   42.2847   10.9564 C.ar    1  UNL1       -0.0000
     32 C           3.6252   42.8433    9.8149 C.ar    1  UNL1       -0.0003
@<TRIPOS>BOND
     1    13    12    1
     2    13    14    1
     3    13    11    1
     4    14    15    1
     5     5    11    1
     6     6     7   ar
     7     7     3    1
     8     1    18    1
     9    19    18    1
    10    19    20    1
    11    20    21    1
    12    20    28    1
    13    21    22   ar
    14    22    27    1
    15    23    24   ar
    16    25    26   ar
    17    28    29   ar
    18    30    31   ar
    19    32    27   ar
    20     8     9   ar
    21    10     5   ar
    22     3     1   am
    23    14    16    2
    24     5     6   ar
    25     7     8   ar
    26     1     2    2
    27    22    23   ar
    28    24    25   ar
    29    26    21   ar
    30    27    28   ar
    31    29    30   ar
    32    31    32   ar
    33     9    10   ar
    34    15    17    1
    35     3     4    1
@<TRIPOS>MOLECULE
MolPort-046-673-186 MCULE-6479049078 PubChem-146048598
 32 35 0 0 0
SMALL
GASTEIGER

@<TRIPOS>ATOM
      1 C           9.5734   41.3588   10.7990 C.2     1  UNL1        0.4054
      2 O          10.1039   40.5862   11.6433 O.2     1  UNL1       -0.2261
      3 N          10.3077   41.8162    9.6566 N.am    1  UNL1       -0.2498
      4 H           9.8317   42.4170    9.0388 H       1  UNL1        0.1582
      5 C          13.5751   41.8484    7.8584 C.ar    1  UNL1        0.1404
      6 C          12.2558   42.1332    8.2257 C.ar    1  UNL1        0.0517
      7 C          11.6630   41.4911    9.3184 C.ar    1  UNL1        0.0562
      8 C          12.4067   40.5524   10.0490 C.ar    1  UNL1        0.0150
      9 C          13.7250   40.2615    9.6899 C.ar    1  UNL1        0.0044
     10 C          14.3089   40.9072    8.5976 C.ar    1  UNL1        0.0370
     11 O          14.1304   42.5123    6.7608 O.3     1  UNL1       -0.4678
     12 C          16.4426   43.1263    7.0045 C.3     1  UNL1        0.0596
     13 C          15.0123   43.6198    6.8977 C.3     1  UNL1        0.2632
     14 C          14.8613   44.5404    5.7335 C.2     1  UNL1        0.3544
     15 O          14.6355   45.8924    5.9518 O.3     1  UNL1       -0.4777
     16 O          14.9289   44.0993    4.5556 O.2     1  UNL1       -0.2463
     17 H          14.5847   46.2236    6.8269 H       1  UNL1        0.2952
     18 O           8.2559   41.7826   10.9644 O.3     1  UNL1       -0.4338
     19 C           7.6730   42.7759   10.1277 C.3     1  UNL1        0.2187
     20 C           6.4821   42.2145    9.3503 C.3     1  UNL1        0.0884
     21 C           5.7564   43.2951    8.5934 C.ar    1  UNL1       -0.0148
     22 C           4.4483   43.4244    9.0248 C.ar    1  UNL1       -0.0038
     23 C           3.5763   44.3579    8.4669 C.ar    1  UNL1       -0.0003
     24 C           4.0631   45.1784    7.4370 C.ar    1  UNL1       -0.0000
     25 C           5.3924   45.0498    6.9886 C.ar    1  UNL1       -0.0003
     26 C           6.2516   44.1004    7.5664 C.ar    1  UNL1       -0.0038
     27 C           4.2187   42.4586   10.0739 C.ar    1  UNL1       -0.0038
     28 C           5.3886   41.7479   10.2743 C.ar    1  UNL1       -0.0148
     29 C           5.4505   40.7303   11.2278 C.ar    1  UNL1       -0.0038
     30 C           4.2995   40.4522   11.9837 C.ar    1  UNL1       -0.0003
     31 C           3.1135   41.1838   11.7768 C.ar    1  UNL1       -0.0000
     32 C           3.0636   42.2009   10.8103 C.ar    1  UNL1       -0.0003
@<TRIPOS>BOND
     1    13    12    1
     2    13    14    1
     3    13    11    1
     4    14    15    1
     5     5    11    1
     6     6     7   ar
     7     7     3    1
     8     1    18    1
     9    19    18    1
    10    19    20    1
    11    20    21    1
    12    20    28    1
    13    21    22   ar
    14    22    27    1
    15    23    24   ar
    16    25    26   ar
    17    28    29   ar
    18    30    31   ar
    19    32    27   ar
    20     8     9   ar
    21    10     5   ar
    22     3     1   am
    23    14    16    2
    24     5     6   ar
    25     7     8   ar
    26     1     2    2
    27    22    23   ar
    28    24    25   ar
    29    26    21   ar
    30    27    28   ar
    31    29    30   ar
    32    31    32   ar
    33     9    10   ar
    34    15    17    1
    35     3     4    1
@<TRIPOS>MOLECULE
MolPort-046-673-186 MCULE-6479049078 PubChem-146048598
 32 35 0 0 0
SMALL
GASTEIGER

@<TRIPOS>ATOM
      1 C           9.7297   41.2721    6.5095 C.2     1  UNL1        0.4054
      2 O           9.0785   41.4725    5.4480 O.2     1  UNL1       -0.2261
      3 N           9.2032   41.6688    7.7820 N.am    1  UNL1       -0.2498
      4 H           9.7648   41.4817    8.5686 H       1  UNL1        0.1582
      5 C           5.8972   42.4140    9.3393 C.ar    1  UNL1        0.1404
      6 C           7.1331   41.8214    9.0604 C.ar    1  UNL1        0.0517
      7 C           7.9444   42.3095    8.0302 C.ar    1  UNL1        0.0562
      8 C           7.5065   43.4063    7.2731 C.ar    1  UNL1        0.0150
      9 C           6.2738   44.0050    7.5443 C.ar    1  UNL1        0.0044
     10 C           5.4703   43.5112    8.5744 C.ar    1  UNL1        0.0370
     11 O           5.1172   41.8964   10.3773 O.3     1  UNL1       -0.4678
     12 C           3.9911   40.0694   11.4619 C.3     1  UNL1        0.0596
     13 C           4.1632   40.8603   10.1791 C.3     1  UNL1        0.2632
     14 C           2.8602   41.4416    9.7433 C.2     1  UNL1        0.3544
     15 O           2.2403   40.9574    8.5997 O.3     1  UNL1       -0.4777
     16 O           2.3231   42.3729   10.3998 O.2     1  UNL1       -0.2463
     17 H           2.6373   40.2648    8.1092 H       1  UNL1        0.2952
     18 O          10.9799   40.6576    6.4619 O.3     1  UNL1       -0.4338
     19 C          12.1441   41.3505    6.0251 C.3     1  UNL1        0.2187
     20 C          12.7800   42.1397    7.1701 C.3     1  UNL1        0.0884
     21 C          13.9662   42.9387    6.6994 C.ar    1  UNL1       -0.0148
     22 C          15.1294   42.5394    7.3331 C.ar    1  UNL1       -0.0038
     23 C          16.3588   43.1391    7.0651 C.ar    1  UNL1       -0.0003
     24 C          16.3914   44.1782    6.1215 C.ar    1  UNL1       -0.0000
     25 C          15.2106   44.5940    5.4753 C.ar    1  UNL1       -0.0003
     26 C          13.9833   43.9743    5.7636 C.ar    1  UNL1       -0.0038
     27 C          14.8034   41.4720    8.2499 C.ar    1  UNL1       -0.0038
     28 C          13.4440   41.2285    8.1681 C.ar    1  UNL1       -0.0148
     29 C          12.8458   40.2490    8.9625 C.ar    1  UNL1       -0.0038
     30 C          13.6588   39.5118    9.8395 C.ar    1  UNL1       -0.0003
     31 C          15.0431   39.7626    9.9133 C.ar    1  UNL1       -0.0000
     32 C          15.6307   40.7548    9.1126 C.ar    1  UNL1       -0.0003
@<TRIPOS>BOND
     1    13    12    1
     2    13    14    1
     3    13    11    1
     4    14    15    1
     5     5    11    1
     6     6     7   ar
     7     7     3    1
     8     1    18    1
     9    19    18    1
    10    19    20    1
    11    20    21    1
    12    20    28    1
    13    21    22   ar
    14    22    27    1
    15    23    24   ar
    16    25    26   ar
    17    28    29   ar
    18    30    31   ar
    19    32    27   ar
    20     8     9   ar
    21    10     5   ar
    22     3     1   am
    23    14    16    2
    24     5     6   ar
    25     7     8   ar
    26     1     2    2
    27    22    23   ar
    28    24    25   ar
    29    26    21   ar
    30    27    28   ar
    31    29    30   ar
    32    31    32   ar
    33     9    10   ar
    34    15    17    1
    35     3     4    1
@<TRIPOS>MOLECULE
MolPort-046-673-186 MCULE-6479049078 PubChem-146048598
 32 35 0 0 0
SMALL
GASTEIGER

@<TRIPOS>ATOM
      1 C           9.9774   42.0657    8.3391 C.2     1  UNL1        0.4054
      2 O           9.8073   42.1166    9.5880 O.2     1  UNL1       -0.2261
      3 N           8.9218   42.4212    7.4374 N.am    1  UNL1       -0.2498
      4 H           9.1241   42.3583    6.4760 H       1  UNL1        0.1582
      5 C           5.6614   42.6303    9.2365 C.ar    1  UNL1        0.1404
      6 C           6.9493   42.2370    8.8581 C.ar    1  UNL1        0.0517
      7 C           7.6019   42.8590    7.7880 C.ar    1  UNL1        0.0562
      8 C           6.9506   43.8882    7.0919 C.ar    1  UNL1        0.0150
      9 C           5.6645   44.2881    7.4625 C.ar    1  UNL1        0.0044
     10 C           5.0204   43.6616    8.5319 C.ar    1  UNL1        0.0370
     11 O           5.0447   41.9839   10.3115 O.3     1  UNL1       -0.4678
     12 C           4.0835   40.0821   11.4259 C.3     1  UNL1        0.0596
     13 C           4.1570   40.8857   10.1415 C.3     1  UNL1        0.2632
     14 C           2.8033   41.3779    9.7533 C.2     1  UNL1        0.3544
     15 O           2.2345   40.9544    8.5601 O.3     1  UNL1       -0.4777
     16 O           2.1769   42.1804   10.4952 O.2     1  UNL1       -0.2463
     17 H           2.6979   40.3575    8.0061 H       1  UNL1        0.2952
     18 O          11.2026   41.6604    7.8125 O.3     1  UNL1       -0.4338
     19 C          12.4192   41.8041    8.5377 C.3     1  UNL1        0.2187
     20 C          13.6199   41.3754    7.6935 C.3     1  UNL1        0.0884
     21 C          14.7414   40.8531    8.5517 C.ar    1  UNL1       -0.0148
     22 C          15.8819   41.6251    8.4196 C.ar    1  UNL1       -0.0038
     23 C          17.0550   41.3329    9.1133 C.ar    1  UNL1       -0.0003
     24 C          17.0547   40.2160    9.9640 C.ar    1  UNL1       -0.0000
     25 C          15.8990   39.4220   10.1005 C.ar    1  UNL1       -0.0003
     26 C          14.7290   39.7367    9.3894 C.ar    1  UNL1       -0.0038
     27 C          15.6037   42.6894    7.4835 C.ar    1  UNL1       -0.0038
     28 C          14.2957   42.5582    7.0522 C.ar    1  UNL1       -0.0148
     29 C          13.7583   43.4508    6.1232 C.ar    1  UNL1       -0.0038
     30 C          14.5747   44.4890    5.6446 C.ar    1  UNL1       -0.0003
     31 C          15.9040   44.6184    6.0925 C.ar    1  UNL1       -0.0000
     32 C          16.4337   43.7101    7.0228 C.ar    1  UNL1       -0.0003
@<TRIPOS>BOND
     1    13    12    1
     2    13    14    1
     3    13    11    1
     4    14    15    1
     5     5    11    1
     6     6     7   ar
     7     7     3    1
     8     1    18    1
     9    19    18    1
    10    19    20    1
    11    20    21    1
    12    20    28    1
    13    21    22   ar
    14    22    27    1
    15    23    24   ar
    16    25    26   ar
    17    28    29   ar
    18    30    31   ar
    19    32    27   ar
    20     8     9   ar
    21    10     5   ar
    22     3     1   am
    23    14    16    2
    24     5     6   ar
    25     7     8   ar
    26     1     2    2
    27    22    23   ar
    28    24    25   ar
    29    26    21   ar
    30    27    28   ar
    31    29    30   ar
    32    31    32   ar
    33     9    10   ar
    34    15    17    1
    35     3     4    1
@<TRIPOS>MOLECULE
MolPort-046-673-186 MCULE-6479049078 PubChem-146048598
 32 35 0 0 0
SMALL
GASTEIGER

@<TRIPOS>ATOM
      1 C          10.0446   42.7697   10.0275 C.2     1  UNL1        0.4054
      2 O          10.7818   43.7834   10.1700 O.2     1  UNL1       -0.2261
      3 N          10.5950   41.5105    9.6214 N.am    1  UNL1       -0.2498
      4 H           9.9620   40.7621    9.5300 H       1  UNL1        0.1582
      5 C          14.0351   40.1160    9.9851 C.ar    1  UNL1        0.1404
      6 C          12.6909   40.4208   10.2238 C.ar    1  UNL1        0.0517
      7 C          11.9710   41.2257    9.3340 C.ar    1  UNL1        0.0562
      8 C          12.6114   41.7287    8.1917 C.ar    1  UNL1        0.0150
      9 C          13.9534   41.4296    7.9447 C.ar    1  UNL1        0.0044
     10 C          14.6645   40.6254    8.8383 C.ar    1  UNL1        0.0370
     11 O          14.7184   39.3080   10.8983 O.3     1  UNL1       -0.4678
     12 C          13.3318   37.3450   10.9793 C.3     1  UNL1        0.0596
     13 C          14.7371   37.8889   10.8055 C.3     1  UNL1        0.2632
     14 C          15.3018   37.4700    9.4897 C.2     1  UNL1        0.3544
     15 O          14.4795   36.8610    8.5519 O.3     1  UNL1       -0.4777
     16 O          16.5195   37.6572    9.2270 O.2     1  UNL1       -0.2463
     17 H          13.5733   36.7204    8.7444 H       1  UNL1        0.2952
     18 O           8.6738   42.8586   10.2643 O.3     1  UNL1       -0.4338
     19 C           7.9160   41.7474   10.7308 C.3     1  UNL1        0.2187
     20 C           6.7693   41.4196    9.7740 C.3     1  UNL1        0.0884
     21 C           6.5689   42.5109    8.7561 C.ar    1  UNL1       -0.0148
     22 C           5.3127   43.0802    8.8647 C.ar    1  UNL1       -0.0038
     23 C           4.8938   44.1095    8.0232 C.ar    1  UNL1       -0.0003
     24 C           5.7908   44.5632    7.0432 C.ar    1  UNL1       -0.0000
     25 C           7.0701   43.9855    6.9228 C.ar    1  UNL1       -0.0003
     26 C           7.4684   42.9484    7.7826 C.ar    1  UNL1       -0.0038
     27 C           4.6062   42.4199    9.9376 C.ar    1  UNL1       -0.0038
     28 C           5.4372   41.4531   10.4751 C.ar    1  UNL1       -0.0148
     29 C           5.0033   40.6443   11.5268 C.ar    1  UNL1       -0.0038
     30 C           3.7071   40.8421   12.0309 C.ar    1  UNL1       -0.0003
     31 C           2.8689   41.8321   11.4812 C.ar    1  UNL1       -0.0000
     32 C           3.3161   42.6347   10.4197 C.ar    1  UNL1       -0.0003
@<TRIPOS>BOND
     1    13    12    1
     2    13    14    1
     3    13    11    1
     4    14    15    1
     5     5    11    1
     6     6     7   ar
     7     7     3    1
     8     1    18    1
     9    19    18    1
    10    19    20    1
    11    20    21    1
    12    20    28    1
    13    21    22   ar
    14    22    27    1
    15    23    24   ar
    16    25    26   ar
    17    28    29   ar
    18    30    31   ar
    19    32    27   ar
    20     8     9   ar
    21    10     5   ar
    22     3     1   am
    23    14    16    2
    24     5     6   ar
    25     7     8   ar
    26     1     2    2
    27    22    23   ar
    28    24    25   ar
    29    26    21   ar
    30    27    28   ar
    31    29    30   ar
    32    31    32   ar
    33     9    10   ar
    34    15    17    1
    35     3     4    1
@<TRIPOS>MOLECULE
MolPort-046-673-186 MCULE-6479049078 PubChem-146048598
 32 35 0 0 0
SMALL
GASTEIGER

@<TRIPOS>ATOM
      1 C           9.4671   41.4475    7.5329 C.2     1  UNL1        0.4054
      2 O           9.7665   40.6146    6.6341 O.2     1  UNL1       -0.2261
      3 N          10.4803   42.0364    8.3577 N.am    1  UNL1       -0.2498
      4 H          10.1755   42.6783    9.0390 H       1  UNL1        0.1582
      5 C          13.8427   40.6806    9.2335 C.ar    1  UNL1        0.1404
      6 C          12.4704   40.9509    9.2545 C.ar    1  UNL1        0.0517
      7 C          11.8916   41.7890    8.2952 C.ar    1  UNL1        0.0562
      8 C          12.7033   42.3607    7.3041 C.ar    1  UNL1        0.0150
      9 C          14.0747   42.0965    7.2748 C.ar    1  UNL1        0.0044
     10 C          14.6442   41.2588    8.2365 C.ar    1  UNL1        0.0370
     11 O          14.3815   39.8375   10.2096 O.3     1  UNL1       -0.4678
     12 C          14.9345   37.7593    9.1335 C.3     1  UNL1        0.0596
     13 C          14.1395   38.4362   10.2338 C.3     1  UNL1        0.2632
     14 C          14.5083   37.8766   11.5666 C.2     1  UNL1        0.3544
     15 O          14.2907   36.5315   11.8309 O.3     1  UNL1       -0.4777
     16 O          15.0073   38.6164   12.4557 O.2     1  UNL1       -0.2463
     17 H          13.9197   35.9786   11.1716 H       1  UNL1        0.2952
     18 O           8.1374   41.8110    7.7397 O.3     1  UNL1       -0.4338
     19 C           7.3464   41.2228    8.7667 C.3     1  UNL1        0.2187
     20 C           6.6876   42.2926    9.6382 C.3     1  UNL1        0.0884
     21 C           5.5133   41.7390   10.4008 C.ar    1  UNL1       -0.0148
     22 C           4.3360   42.3752   10.0496 C.ar    1  UNL1       -0.0038
     23 C           3.1137   42.0374   10.6283 C.ar    1  UNL1       -0.0003
     24 C           3.1034   41.0194   11.5950 C.ar    1  UNL1       -0.0000
     25 C           4.2985   40.3699   11.9618 C.ar    1  UNL1       -0.0003
     26 C           5.5181   40.7293   11.3646 C.ar    1  UNL1       -0.0038
     27 C           4.6403   43.3750    9.0525 C.ar    1  UNL1       -0.0038
     28 C           6.0007   43.3405    8.8033 C.ar    1  UNL1       -0.0148
     29 C           6.5799   44.2177    7.8848 C.ar    1  UNL1       -0.0038
     30 C           5.7469   45.1289    7.2144 C.ar    1  UNL1       -0.0003
     31 C           4.3618   45.1542    7.4704 C.ar    1  UNL1       -0.0000
     32 C           3.7933   44.2701    8.4011 C.ar    1  UNL1       -0.0003
@<TRIPOS>BOND
     1    13    12    1
     2    13    14    1
     3    13    11    1
     4    14    15    1
     5     5    11    1
     6     6     7   ar
     7     7     3    1
     8     1    18    1
     9    19    18    1
    10    19    20    1
    11    20    21    1
    12    20    28    1
    13    21    22   ar
    14    22    27    1
    15    23    24   ar
    16    25    26   ar
    17    28    29   ar
    18    30    31   ar
    19    32    27   ar
    20     8     9   ar
    21    10     5   ar
    22     3     1   am
    23    14    16    2
    24     5     6   ar
    25     7     8   ar
    26     1     2    2
    27    22    23   ar
    28    24    25   ar
    29    26    21   ar
    30    27    28   ar
    31    29    30   ar
    32    31    32   ar
    33     9    10   ar
    34    15    17    1
    35     3     4    1
@<TRIPOS>MOLECULE
MolPort-046-673-186 MCULE-6479049078 PubChem-146048598
 32 35 0 0 0
SMALL
GASTEIGER

@<TRIPOS>ATOM
      1 C          12.9280   40.1480    9.8872 C.2     1  UNL1        0.4054
      2 O          13.5447   40.0452   10.9828 O.2     1  UNL1       -0.2261
      3 N          13.5510   40.7499    8.7456 N.am    1  UNL1       -0.2498
      4 H          13.0117   40.7971    7.9234 H       1  UNL1        0.1582
      5 C          16.3291   43.1370    8.0424 C.ar    1  UNL1        0.1404
      6 C          15.0543   42.5683    8.1320 C.ar    1  UNL1        0.0517
      7 C          14.8773   41.2909    8.6748 C.ar    1  UNL1        0.0562
      8 C          15.9960   40.5788    9.1326 C.ar    1  UNL1        0.0150
      9 C          17.2731   41.1386    9.0475 C.ar    1  UNL1        0.0044
     10 C          17.4406   42.4143    8.5041 C.ar    1  UNL1        0.0370
     11 O          16.4628   44.4158    7.4941 O.3     1  UNL1       -0.4678
     12 C          17.4406   43.6620    5.4305 C.3     1  UNL1        0.0596
     13 C          16.4998   44.6511    6.0918 C.3     1  UNL1        0.2632
     14 C          15.1280   44.5338    5.5174 C.2     1  UNL1        0.3544
     15 O          14.9277   43.7873    4.3645 O.3     1  UNL1       -0.4777
     16 O          14.1529   45.1133    6.0653 O.2     1  UNL1       -0.2463
     17 H          15.6510   43.3551    3.9547 H       1  UNL1        0.2952
     18 O          11.6224   39.6746    9.7683 O.3     1  UNL1       -0.4338
     19 C          11.0426   39.3721    8.5038 C.3     1  UNL1        0.2187
     20 C          10.3842   40.6072    7.8880 C.3     1  UNL1        0.0884
     21 C          10.0007   41.6128    8.9410 C.ar    1  UNL1       -0.0148
     22 C           8.6340   41.8265    8.9634 C.ar    1  UNL1       -0.0038
     23 C           8.0416   42.7217    9.8525 C.ar    1  UNL1       -0.0003
     24 C           8.8781   43.4163   10.7407 C.ar    1  UNL1       -0.0000
     25 C          10.2713   43.2081   10.7212 C.ar    1  UNL1       -0.0003
     26 C          10.8445   42.3009    9.8145 C.ar    1  UNL1       -0.0038
     27 C           8.0283   40.9971    7.9477 C.ar    1  UNL1       -0.0038
     28 C           9.0303   40.2841    7.3140 C.ar    1  UNL1       -0.0148
     29 C           8.7306   39.4067    6.2704 C.ar    1  UNL1       -0.0038
     30 C           7.3874   39.2596    5.8862 C.ar    1  UNL1       -0.0003
     31 C           6.3725   39.9858    6.5398 C.ar    1  UNL1       -0.0000
     32 C           6.6887   40.8692    7.5842 C.ar    1  UNL1       -0.0003
@<TRIPOS>BOND
     1    13    12    1
     2    13    14    1
     3    13    11    1
     4    14    15    1
     5     5    11    1
     6     6     7   ar
     7     7     3    1
     8     1    18    1
     9    19    18    1
    10    19    20    1
    11    20    21    1
    12    20    28    1
    13    21    22   ar
    14    22    27    1
    15    23    24   ar
    16    25    26   ar
    17    28    29   ar
    18    30    31   ar
    19    32    27   ar
    20     8     9   ar
    21    10     5   ar
    22     3     1   am
    23    14    16    2
    24     5     6   ar
    25     7     8   ar
    26     1     2    2
    27    22    23   ar
    28    24    25   ar
    29    26    21   ar
    30    27    28   ar
    31    29    30   ar
    32    31    32   ar
    33     9    10   ar
    34    15    17    1
    35     3     4    1
@<TRIPOS>MOLECULE
MolPort-046-673-186 MCULE-6479049078 PubChem-146048598
 32 35 0 0 0
SMALL
GASTEIGER

@<TRIPOS>ATOM
      1 C          10.8505   41.7572    7.4413 C.2     1  UNL1        0.4054
      2 O          10.7679   41.0992    8.5143 O.2     1  UNL1       -0.2261
      3 N           9.6966   41.9723    6.6191 N.am    1  UNL1       -0.2498
      4 H           9.8336   42.4946    5.7959 H       1  UNL1        0.1582
      5 C           6.3034   41.7146    8.1456 C.ar    1  UNL1        0.1404
      6 C           7.6082   42.1341    7.8663 C.ar    1  UNL1        0.0517
      7 C           8.3633   41.5069    6.8692 C.ar    1  UNL1        0.0562
      8 C           7.7982   40.4462    6.1455 C.ar    1  UNL1        0.0150
      9 C           6.4958   40.0204    6.4170 C.ar    1  UNL1        0.0044
     10 C           5.7492   40.6521    7.4142 C.ar    1  UNL1        0.0370
     11 O           5.5825   42.3681    9.1491 O.3     1  UNL1       -0.4678
     12 C           5.9445   44.4104    7.9324 C.3     1  UNL1        0.0596
     13 C           5.1660   43.7235    9.0382 C.3     1  UNL1        0.2632
     14 C           3.7008   43.7873    8.7649 C.2     1  UNL1        0.3544
     15 O           2.9156   42.6598    8.9621 O.3     1  UNL1       -0.4777
     16 O           3.1729   44.8528    8.3493 O.2     1  UNL1       -0.2463
     17 H           3.3053   41.8658    9.2713 H       1  UNL1        0.2952
     18 O          12.0732   42.2893    7.0352 O.3     1  UNL1       -0.4338
     19 C          13.1519   42.4786    7.9446 C.3     1  UNL1        0.2187
     20 C          14.3956   41.7115    7.4942 C.3     1  UNL1        0.0884
     21 C          14.9168   40.8135    8.5846 C.ar    1  UNL1       -0.0148
     22 C          16.1986   41.1695    8.9645 C.ar    1  UNL1       -0.0038
     23 C          16.8933   40.4780    9.9555 C.ar    1  UNL1       -0.0003
     24 C          16.2525   39.3906   10.5703 C.ar    1  UNL1       -0.0000
     25 C          14.9492   39.0185   10.1859 C.ar    1  UNL1       -0.0003
     26 C          14.2703   39.7310    9.1834 C.ar    1  UNL1       -0.0038
     27 C          16.6095   42.3028    8.1689 C.ar    1  UNL1       -0.0038
     28 C          15.5751   42.6292    7.3102 C.ar    1  UNL1       -0.0148
     29 C          15.7041   43.6861    6.4075 C.ar    1  UNL1       -0.0038
     30 C          16.9054   44.4144    6.3989 C.ar    1  UNL1       -0.0003
     31 C          17.9521   44.0786    7.2800 C.ar    1  UNL1       -0.0000
     32 C          17.8110   43.0094    8.1788 C.ar    1  UNL1       -0.0003
@<TRIPOS>BOND
     1    13    12    1
     2    13    14    1
     3    13    11    1
     4    14    15    1
     5     5    11    1
     6     6     7   ar
     7     7     3    1
     8     1    18    1
     9    19    18    1
    10    19    20    1
    11    20    21    1
    12    20    28    1
    13    21    22   ar
    14    22    27    1
    15    23    24   ar
    16    25    26   ar
    17    28    29   ar
    18    30    31   ar
    19    32    27   ar
    20     8     9   ar
    21    10     5   ar
    22     3     1   am
    23    14    16    2
    24     5     6   ar
    25     7     8   ar
    26     1     2    2
    27    22    23   ar
    28    24    25   ar
    29    26    21   ar
    30    27    28   ar
    31    29    30   ar
    32    31    32   ar
    33     9    10   ar
    34    15    17    1
    35     3     4    1
@<TRIPOS>MOLECULE
MolPort-046-673-186 MCULE-6479049078 PubChem-146048598
 32 35 0 0 0
SMALL
GASTEIGER

@<TRIPOS>ATOM
      1 C          10.0346   40.8736   10.6596 C.2     1  UNL1        0.4054
      2 O          10.5802   40.9796   11.7919 O.2     1  UNL1       -0.2261
      3 N          10.3881   39.8079    9.7691 N.am    1  UNL1       -0.2498
      4 H           9.9228   39.7861    8.9018 H       1  UNL1        0.1582
      5 C          13.6385   38.1516   10.5448 C.ar    1  UNL1        0.1404
      6 C          12.6676   39.1293   10.3041 C.ar    1  UNL1        0.0517
      7 C          11.3482   38.7697   10.0084 C.ar    1  UNL1        0.0562
      8 C          11.0028   37.4110    9.9547 C.ar    1  UNL1        0.0150
      9 C          11.9655   36.4274   10.1938 C.ar    1  UNL1        0.0044
     10 C          13.2803   36.7953   10.4882 C.ar    1  UNL1        0.0370
     11 O          14.9451   38.5528   10.8375 O.3     1  UNL1       -0.4678
     12 C          15.3241   40.3116    9.2421 C.3     1  UNL1        0.0596
     13 C          15.8470   39.0204    9.8421 C.3     1  UNL1        0.2632
     14 C          17.2000   39.2286   10.4353 C.2     1  UNL1        0.3544
     15 O          17.8512   40.4406   10.2520 O.3     1  UNL1       -0.4777
     16 O          17.7585   38.3111   11.0933 O.2     1  UNL1       -0.2463
     17 H          17.4383   41.1250    9.7630 H       1  UNL1        0.2952
     18 O           9.0729   41.7972   10.2534 O.3     1  UNL1       -0.4338
     19 C           7.7869   41.8624   10.8605 C.3     1  UNL1        0.2187
     20 C           6.6855   41.5052    9.8618 C.3     1  UNL1        0.0884
     21 C           6.4659   42.6093    8.8619 C.ar    1  UNL1       -0.0148
     22 C           5.1823   43.1189    8.9438 C.ar    1  UNL1       -0.0038
     23 C           4.7422   44.1472    8.1120 C.ar    1  UNL1       -0.0003
     24 C           5.6465   44.6632    7.1702 C.ar    1  UNL1       -0.0000
     25 C           6.9539   44.1466    7.0771 C.ar    1  UNL1       -0.0003
     26 C           7.3732   43.1091    7.9263 C.ar    1  UNL1       -0.0038
     27 C           4.4750   42.4030    9.9799 C.ar    1  UNL1       -0.0038
     28 C           5.3328   41.4626   10.5219 C.ar    1  UNL1       -0.0148
     29 C           4.9052   40.6112   11.5421 C.ar    1  UNL1       -0.0038
     30 C           3.5867   40.7389   12.0100 C.ar    1  UNL1       -0.0003
     31 C           2.7210   41.7024   11.4560 C.ar    1  UNL1       -0.0000
     32 C           3.1626   42.5484   10.4263 C.ar    1  UNL1       -0.0003
@<TRIPOS>BOND
     1    13    12    1
     2    13    14    1
     3    13    11    1
     4    14    15    1
     5     5    11    1
     6     6     7   ar
     7     7     3    1
     8     1    18    1
     9    19    18    1
    10    19    20    1
    11    20    21    1
    12    20    28    1
    13    21    22   ar
    14    22    27    1
    15    23    24   ar
    16    25    26   ar
    17    28    29   ar
    18    30    31   ar
    19    32    27   ar
    20     8     9   ar
    21    10     5   ar
    22     3     1   am
    23    14    16    2
    24     5     6   ar
    25     7     8   ar
    26     1     2    2
    27    22    23   ar
    28    24    25   ar
    29    26    21   ar
    30    27    28   ar
    31    29    30   ar
    32    31    32   ar
    33     9    10   ar
    34    15    17    1
    35     3     4    1
@<TRIPOS>MOLECULE
MolPort-046-673-186 MCULE-6479049078 PubChem-146048598
 32 35 0 0 0
SMALL
GASTEIGER

@<TRIPOS>ATOM
      1 C          10.3025   41.4414    7.2667 C.2     1  UNL1        0.4054
      2 O          10.5255   40.2917    6.7982 O.2     1  UNL1       -0.2261
      3 N          11.3149   42.1494    7.9929 N.am    1  UNL1       -0.2498
      4 H          11.0722   43.0419    8.3302 H       1  UNL1        0.1582
      5 C          15.0324   41.8804    7.8571 C.ar    1  UNL1        0.1404
      6 C          13.7183   42.2908    7.6097 C.ar    1  UNL1        0.0517
      7 C          12.6444   41.6948    8.2801 C.ar    1  UNL1        0.0562
      8 C          12.8967   40.6749    9.2098 C.ar    1  UNL1        0.0150
      9 C          14.2058   40.2585    9.4637 C.ar    1  UNL1        0.0044
     10 C          15.2717   40.8588    8.7899 C.ar    1  UNL1        0.0370
     11 O          16.0769   42.5018    7.1667 O.3     1  UNL1       -0.4678
     12 C          17.6785   43.9340    8.2467 C.3     1  UNL1        0.0596
     13 C          16.4369   43.8614    7.3785 C.3     1  UNL1        0.2632
     14 C          16.6724   44.5377    6.0698 C.2     1  UNL1        0.3544
     15 O          15.9530   45.6802    5.7478 O.3     1  UNL1       -0.4777
     16 O          17.5121   44.0756    5.2524 O.2     1  UNL1       -0.2463
     17 H          15.3277   46.0264    6.3536 H       1  UNL1        0.2952
     18 O           9.0597   42.0458    7.0846 O.3     1  UNL1       -0.4338
     19 C           8.2630   42.4767    8.1828 C.3     1  UNL1        0.2187
     20 C           7.8168   41.2921    9.0404 C.3     1  UNL1        0.0884
     21 C           6.3673   41.4071    9.4314 C.ar    1  UNL1       -0.0148
     22 C           6.2179   41.4867   10.8045 C.ar    1  UNL1       -0.0038
     23 C           4.9647   41.5934   11.4054 C.ar    1  UNL1       -0.0003
     24 C           3.8357   41.6171   10.5711 C.ar    1  UNL1       -0.0000
     25 C           3.9789   41.5317    9.1722 C.ar    1  UNL1       -0.0003
     26 C           5.2531   41.4236    8.5907 C.ar    1  UNL1       -0.0038
     27 C           7.5290   41.4295   11.4078 C.ar    1  UNL1       -0.0038
     28 C           8.4677   41.3157   10.3979 C.ar    1  UNL1       -0.0148
     29 C           9.8284   41.2246   10.6960 C.ar    1  UNL1       -0.0038
     30 C          10.2207   41.2602   12.0444 C.ar    1  UNL1       -0.0003
     31 C           9.2589   41.3811   13.0666 C.ar    1  UNL1       -0.0000
     32 C           7.8931   41.4660   12.7528 C.ar    1  UNL1       -0.0003
@<TRIPOS>BOND
     1    13    12    1
     2    13    14    1
     3    13    11    1
     4    14    15    1
     5     5    11    1
     6     6     7   ar
     7     7     3    1
     8     1    18    1
     9    19    18    1
    10    19    20    1
    11    20    21    1
    12    20    28    1
    13    21    22   ar
    14    22    27    1
    15    23    24   ar
    16    25    26   ar
    17    28    29   ar
    18    30    31   ar
    19    32    27   ar
    20     8     9   ar
    21    10     5   ar
    22     3     1   am
    23    14    16    2
    24     5     6   ar
    25     7     8   ar
    26     1     2    2
    27    22    23   ar
    28    24    25   ar
    29    26    21   ar
    30    27    28   ar
    31    29    30   ar
    32    31    32   ar
    33     9    10   ar
    34    15    17    1
    35     3     4    1
