@<TRIPOS>MOLECULE
MolPort-002-455-714 568498 CSC026735676 CSSS00026735676 ChemDiv-D039-0035 MCULE-8704836685 PubChem-959515 Z57244559 ZINC000000568498 ZINC00568498
 27 28 0 0 0
SMALL
GASTEIGER

@<TRIPOS>ATOM
      1 C          13.0650   42.0096    6.4553 C.2     1  UNL1        0.3092
      2 O          13.3710   40.8886    6.9454 O.2     1  UNL1       -0.2521
      3 N          11.8452   42.1788    5.7268 N.am    1  UNL1       -0.2551
      4 N          13.9141   43.1428    6.6596 N.am    1  UNL1       -0.2683
      5 H          11.6377   43.0807    5.3908 H       1  UNL1        0.1578
      6 H          13.5518   44.0294    6.4314 H       1  UNL1        0.1564
      7 C           9.2799   39.6595    5.7077 C.ar    1  UNL1        0.0857
      8 C           9.7953   39.6194    4.4174 C.ar    1  UNL1        0.0408
      9 C           9.3459   38.7179    3.3196 C.3     1  UNL1        0.0500
     10 C          10.9028   41.1367    5.4488 C.ar    1  UNL1        0.1085
     11 C          10.0001   40.6408    6.3644 C.ar    1  UNL1        0.0153
     12 C           9.8486   41.0890    7.7788 C.3     1  UNL1        0.0342
     13 N          10.7860   40.5200    4.2554 N.ar    1  UNL1       -0.3451
     14 H          11.3113   40.6906    3.4405 H       1  UNL1        0.1668
     15 C           8.1919   38.8313    6.2669 C.2     1  UNL1        0.3421
     16 O           8.4648   37.7990    6.9385 O.2     1  UNL1       -0.2449
     17 O           6.8608   39.1943    6.0509 O.3     1  UNL1       -0.4454
     18 C           6.2241   40.7342    7.7735 C.3     1  UNL1        0.0513
     19 C           6.3937   40.5143    6.2848 C.3     1  UNL1        0.2089
     20 C          15.2521   43.0860    7.1711 C.ar    1  UNL1        0.0472
     21 C          15.5743   42.0608    8.0678 C.ar    1  UNL1        0.0101
     22 C          16.8594   41.9657    8.6070 C.ar    1  UNL1       -0.0206
     23 C          17.1915   40.8626    9.5454 C.3     1  UNL1        0.0311
     24 C          17.8312   42.9075    8.2649 C.ar    1  UNL1       -0.0045
     25 C          17.5141   43.9522    7.3939 C.ar    1  UNL1       -0.0034
     26 C          16.2302   44.0545    6.8481 C.ar    1  UNL1       -0.0084
     27 C          15.9220   45.2402    5.9988 C.3     1  UNL1        0.0323
@<TRIPOS>BOND
     1    18    19    1
     2    19    17    1
     3    15    17    1
     4    15     7    1
     5     8    13   ar
     6     9     8    1
     7    10     3    1
     8     1     4   am
     9    21    22   ar
    10    23    22    1
    11    24    25   ar
    12    26    20   ar
    13    27    26    1
    14    11     7   ar
    15    12    11    1
    16    13    10   ar
    17     3     1   am
    18     4    20    1
    19    15    16    2
    20     7     8   ar
    21    10    11   ar
    22     1     2    2
    23    20    21   ar
    24    22    24   ar
    25    25    26   ar
    26    13    14    1
    27     3     5    1
    28     4     6    1
@<TRIPOS>MOLECULE
MolPort-002-455-714 568498 CSC026735676 CSSS00026735676 ChemDiv-D039-0035 MCULE-8704836685 PubChem-959515 Z57244559 ZINC000000568498 ZINC00568498
 27 28 0 0 0
SMALL
GASTEIGER

@<TRIPOS>ATOM
      1 C          13.0521   42.3415    7.1592 C.2     1  UNL1        0.3092
      2 O          13.1532   41.3088    7.8759 O.2     1  UNL1       -0.2521
      3 N          11.8093   42.6770    6.5344 N.am    1  UNL1       -0.2551
      4 N          14.1698   43.2197    6.9965 N.am    1  UNL1       -0.2683
      5 H          11.7742   43.5097    6.0104 H       1  UNL1        0.1578
      6 H          13.9998   44.1025    6.5953 H       1  UNL1        0.1564
      7 C           9.0487   40.4086    6.1328 C.ar    1  UNL1        0.0857
      8 C           8.7413   41.1041    7.2963 C.ar    1  UNL1        0.0408
      9 C           7.5303   40.9095    8.1422 C.3     1  UNL1        0.0500
     10 C          10.6125   41.8942    6.6129 C.ar    1  UNL1        0.1085
     11 C          10.2567   40.9249    5.7003 C.ar    1  UNL1        0.0153
     12 C          11.0361   40.5286    4.4920 C.3     1  UNL1        0.0342
     13 N           9.6938   42.0117    7.5928 N.ar    1  UNL1       -0.3451
     14 H           9.7139   42.6280    8.3603 H       1  UNL1        0.1668
     15 C           8.2566   39.3413    5.4880 C.2     1  UNL1        0.3421
     16 O           6.9963   39.3927    5.5032 O.2     1  UNL1       -0.2449
     17 O           8.9062   38.2758    4.8611 O.3     1  UNL1       -0.4454
     18 C          10.1136   37.1217    3.1423 C.3     1  UNL1        0.0513
     19 C           9.2118   38.2920    3.4748 C.3     1  UNL1        0.2089
     20 C          15.5185   42.9121    7.3730 C.ar    1  UNL1        0.0472
     21 C          15.7266   41.9079    8.3253 C.ar    1  UNL1        0.0101
     22 C          17.0193   41.5765    8.7382 C.ar    1  UNL1       -0.0206
     23 C          17.2259   40.4972    9.7383 C.3     1  UNL1        0.0311
     24 C          18.1167   42.2600    8.2119 C.ar    1  UNL1       -0.0045
     25 C          17.9206   43.2840    7.2826 C.ar    1  UNL1       -0.0034
     26 C          16.6297   43.6216    6.8624 C.ar    1  UNL1       -0.0084
     27 C          16.4739   44.7826    5.9404 C.3     1  UNL1        0.0323
@<TRIPOS>BOND
     1    18    19    1
     2    19    17    1
     3    15    17    1
     4    15     7    1
     5     8    13   ar
     6     9     8    1
     7    10     3    1
     8     1     4   am
     9    21    22   ar
    10    23    22    1
    11    24    25   ar
    12    26    20   ar
    13    27    26    1
    14    11     7   ar
    15    12    11    1
    16    13    10   ar
    17     3     1   am
    18     4    20    1
    19    15    16    2
    20     7     8   ar
    21    10    11   ar
    22     1     2    2
    23    20    21   ar
    24    22    24   ar
    25    25    26   ar
    26    13    14    1
    27     3     5    1
    28     4     6    1
@<TRIPOS>MOLECULE
MolPort-002-455-714 568498 CSC026735676 CSSS00026735676 ChemDiv-D039-0035 MCULE-8704836685 PubChem-959515 Z57244559 ZINC000000568498 ZINC00568498
 27 28 0 0 0
SMALL
GASTEIGER

@<TRIPOS>ATOM
      1 C          10.5956   40.1719    9.4724 C.2     1  UNL1        0.3092
      2 O          11.4185   40.9636    8.9371 O.2     1  UNL1       -0.2521
      3 N          11.0108   38.8746    9.9107 N.am    1  UNL1       -0.2551
      4 N           9.2410   40.5774    9.6906 N.am    1  UNL1       -0.2683
      5 H          10.3376   38.3063   10.3501 H       1  UNL1        0.1578
      6 H           8.6866   40.0138   10.2773 H       1  UNL1        0.1564
      7 C          14.4735   37.9264   10.1061 C.ar    1  UNL1        0.0857
      8 C          13.9974   37.2227    9.0061 C.ar    1  UNL1        0.0408
      9 C          14.7882   36.3000    8.1441 C.3     1  UNL1        0.0500
     10 C          12.3307   38.3396    9.7591 C.ar    1  UNL1        0.1085
     11 C          13.3916   38.6429   10.5846 C.ar    1  UNL1        0.0153
     12 C          13.3564   39.5652   11.7562 C.3     1  UNL1        0.0342
     13 N          12.6895   37.4721    8.7913 N.ar    1  UNL1       -0.3451
     14 H          12.1191   37.1004    8.0802 H       1  UNL1        0.1668
     15 C          15.8452   37.9161   10.6544 C.2     1  UNL1        0.3421
     16 O          16.0800   37.3544   11.7592 O.2     1  UNL1       -0.2449
     17 O          16.8813   38.5291    9.9465 O.3     1  UNL1       -0.4454
     18 C          19.0971   37.6157    9.9256 C.3     1  UNL1        0.0513
     19 C          18.1818   38.6789   10.4959 C.3     1  UNL1        0.2089
     20 C           8.6294   41.7418    9.1202 C.ar    1  UNL1        0.0472
     21 C           8.0144   41.6201    7.8689 C.ar    1  UNL1        0.0101
     22 C           7.4145   42.7254    7.2611 C.ar    1  UNL1       -0.0206
     23 C           6.7514   42.5776    5.9396 C.3     1  UNL1        0.0311
     24 C           7.4388   43.9690    7.8947 C.ar    1  UNL1       -0.0045
     25 C           8.0747   44.1101    9.1301 C.ar    1  UNL1       -0.0034
     26 C           8.6769   43.0083    9.7468 C.ar    1  UNL1       -0.0084
     27 C           9.4201   43.2365   11.0187 C.3     1  UNL1        0.0323
@<TRIPOS>BOND
     1    18    19    1
     2    19    17    1
     3    15    17    1
     4    15     7    1
     5     8    13   ar
     6     9     8    1
     7    10     3    1
     8     1     4   am
     9    21    22   ar
    10    23    22    1
    11    24    25   ar
    12    26    20   ar
    13    27    26    1
    14    11     7   ar
    15    12    11    1
    16    13    10   ar
    17     3     1   am
    18     4    20    1
    19    15    16    2
    20     7     8   ar
    21    10    11   ar
    22     1     2    2
    23    20    21   ar
    24    22    24   ar
    25    25    26   ar
    26    13    14    1
    27     3     5    1
    28     4     6    1
@<TRIPOS>MOLECULE
MolPort-002-455-714 568498 CSC026735676 CSSS00026735676 ChemDiv-D039-0035 MCULE-8704836685 PubChem-959515 Z57244559 ZINC000000568498 ZINC00568498
 27 28 0 0 0
SMALL
GASTEIGER

@<TRIPOS>ATOM
      1 C           8.7849   41.6446    9.4801 C.2     1  UNL1        0.3092
      2 O           8.9070   42.6871    8.7811 O.2     1  UNL1       -0.2521
      3 N           9.9018   40.7768    9.6970 N.am    1  UNL1       -0.2551
      4 N           7.5354   41.3368   10.1054 N.am    1  UNL1       -0.2683
      5 H           9.7623   39.9923   10.2753 H       1  UNL1        0.1578
      6 H           7.5318   40.6296   10.7904 H       1  UNL1        0.1564
      7 C          13.4007   40.9001    8.8782 C.ar    1  UNL1        0.0857
      8 C          12.7854   41.5357    7.8060 C.ar    1  UNL1        0.0408
      9 C          13.4712   42.1146    6.6167 C.3     1  UNL1        0.0500
     10 C          11.2070   40.9621    9.1373 C.ar    1  UNL1        0.1085
     11 C          12.3748   40.5339    9.7305 C.ar    1  UNL1        0.0153
     12 C          12.4859   39.8193   11.0349 C.3     1  UNL1        0.0342
     13 N          11.4462   41.5751    7.9604 N.ar    1  UNL1       -0.3451
     14 H          10.7849   41.9675    7.3456 H       1  UNL1        0.1668
     15 C          14.8456   40.6625    9.0731 C.2     1  UNL1        0.3421
     16 O          15.2367   39.7562    9.8585 O.2     1  UNL1       -0.2449
     17 O          15.7773   41.4429    8.3853 O.3     1  UNL1       -0.4454
     18 C          17.4541   43.1461    8.5630 C.3     1  UNL1        0.0513
     19 C          17.0609   41.7280    8.9205 C.3     1  UNL1        0.2089
     20 C           6.2883   41.9795    9.8106 C.ar    1  UNL1        0.0472
     21 C           6.2885   43.0319    8.8880 C.ar    1  UNL1        0.0101
     22 C           5.1038   43.7018    8.5734 C.ar    1  UNL1       -0.0206
     23 C           5.1165   44.8067    7.5801 C.3     1  UNL1        0.0311
     24 C           3.9083   43.3337    9.1930 C.ar    1  UNL1       -0.0045
     25 C           3.8999   42.3045   10.1371 C.ar    1  UNL1       -0.0034
     26 C           5.0813   41.6272   10.4572 C.ar    1  UNL1       -0.0084
     27 C           5.0305   40.6016   11.5377 C.3     1  UNL1        0.0323
@<TRIPOS>BOND
     1    18    19    1
     2    19    17    1
     3    15    17    1
     4    15     7    1
     5     8    13   ar
     6     9     8    1
     7    10     3    1
     8     1     4   am
     9    21    22   ar
    10    23    22    1
    11    24    25   ar
    12    26    20   ar
    13    27    26    1
    14    11     7   ar
    15    12    11    1
    16    13    10   ar
    17     3     1   am
    18     4    20    1
    19    15    16    2
    20     7     8   ar
    21    10    11   ar
    22     1     2    2
    23    20    21   ar
    24    22    24   ar
    25    25    26   ar
    26    13    14    1
    27     3     5    1
    28     4     6    1
@<TRIPOS>MOLECULE
MolPort-002-455-714 568498 CSC026735676 CSSS00026735676 ChemDiv-D039-0035 MCULE-8704836685 PubChem-959515 Z57244559 ZINC000000568498 ZINC00568498
 27 28 0 0 0
SMALL
GASTEIGER

@<TRIPOS>ATOM
      1 C          12.4170   41.6287    8.7391 C.2     1  UNL1        0.3092
      2 O          12.0766   42.8422    8.7845 O.2     1  UNL1       -0.2521
      3 N          11.6656   40.6336    9.4410 N.am    1  UNL1       -0.2551
      4 N          13.5362   41.2220    7.9462 N.am    1  UNL1       -0.2683
      5 H          11.9542   39.6969    9.3486 H       1  UNL1        0.1578
      6 H          13.6515   40.2580    7.7830 H       1  UNL1        0.1564
      7 C           8.4545   41.3408   10.8958 C.ar    1  UNL1        0.0857
      8 C           9.2943   41.2017   11.9947 C.ar    1  UNL1        0.0408
      9 C           8.8972   41.3268   13.4253 C.3     1  UNL1        0.0500
     10 C          10.5258   40.8959   10.2677 C.ar    1  UNL1        0.1085
     11 C           9.2577   41.1415    9.7877 C.ar    1  UNL1        0.0153
     12 C           8.8549   41.1804    8.3522 C.3     1  UNL1        0.0342
     13 N          10.5595   40.9297   11.6153 N.ar    1  UNL1       -0.3451
     14 H          11.3405   40.7865   12.1974 H       1  UNL1        0.1668
     15 C           7.0076   41.6388   10.9026 C.2     1  UNL1        0.3421
     16 O           6.2560   41.1031   11.7625 O.2     1  UNL1       -0.2449
     17 O           6.4741   42.5154    9.9555 O.3     1  UNL1       -0.4454
     18 C           4.6664   43.6289    8.8434 C.3     1  UNL1        0.0513
     19 C           5.1900   42.3148    9.3842 C.3     1  UNL1        0.2089
     20 C          14.5028   42.1111    7.3712 C.ar    1  UNL1        0.0472
     21 C          15.7324   42.2618    8.0224 C.ar    1  UNL1        0.0101
     22 C          16.7055   43.1248    7.5130 C.ar    1  UNL1       -0.0206
     23 C          18.0125   43.2627    8.2063 C.3     1  UNL1        0.0311
     24 C          16.4497   43.8584    6.3533 C.ar    1  UNL1       -0.0045
     25 C          15.2156   43.7390    5.7104 C.ar    1  UNL1       -0.0034
     26 C          14.2358   42.8761    6.2126 C.ar    1  UNL1       -0.0084
     27 C          12.9058   42.8583    5.5395 C.3     1  UNL1        0.0323
@<TRIPOS>BOND
     1    18    19    1
     2    19    17    1
     3    15    17    1
     4    15     7    1
     5     8    13   ar
     6     9     8    1
     7    10     3    1
     8     1     4   am
     9    21    22   ar
    10    23    22    1
    11    24    25   ar
    12    26    20   ar
    13    27    26    1
    14    11     7   ar
    15    12    11    1
    16    13    10   ar
    17     3     1   am
    18     4    20    1
    19    15    16    2
    20     7     8   ar
    21    10    11   ar
    22     1     2    2
    23    20    21   ar
    24    22    24   ar
    25    25    26   ar
    26    13    14    1
    27     3     5    1
    28     4     6    1
@<TRIPOS>MOLECULE
MolPort-002-455-714 568498 CSC026735676 CSSS00026735676 ChemDiv-D039-0035 MCULE-8704836685 PubChem-959515 Z57244559 ZINC000000568498 ZINC00568498
 27 28 0 0 0
SMALL
GASTEIGER

@<TRIPOS>ATOM
      1 C          11.0083   42.0388    6.7998 C.2     1  UNL1        0.3092
      2 O          11.0804   42.1802    8.0509 O.2     1  UNL1       -0.2521
      3 N          12.1758   42.1684    5.9826 N.am    1  UNL1       -0.2551
      4 N           9.7629   41.7015    6.1818 N.am    1  UNL1       -0.2683
      5 H          12.0723   42.0186    5.0151 H       1  UNL1        0.1578
      6 H           9.7856   41.4131    5.2408 H       1  UNL1        0.1564
      7 C          15.3866   42.4063    7.5832 C.ar    1  UNL1        0.0857
      8 C          15.3489   43.5157    6.7466 C.ar    1  UNL1        0.0408
      9 C          16.4242   44.5350    6.5901 C.3     1  UNL1        0.0500
     10 C          13.4833   42.4995    6.4644 C.ar    1  UNL1        0.1085
     11 C          14.1799   41.7577    7.3937 C.ar    1  UNL1        0.0153
     12 C          13.7054   40.5064    8.0521 C.3     1  UNL1        0.0342
     13 N          14.1887   43.5758    6.0617 N.ar    1  UNL1       -0.3451
     14 H          13.9153   44.2591    5.4078 H       1  UNL1        0.1668
     15 C          16.4818   41.9995    8.4873 C.2     1  UNL1        0.3421
     16 O          17.2456   42.8704    8.9866 O.2     1  UNL1       -0.2449
     17 O          16.6691   40.6487    8.7883 O.3     1  UNL1       -0.4454
     18 C          16.4014   39.2231   10.6962 C.3     1  UNL1        0.0513
     19 C          17.2915   40.2257    9.9921 C.3     1  UNL1        0.2089
     20 C           8.4843   41.7514    6.8284 C.ar    1  UNL1        0.0472
     21 C           7.8642   42.9977    6.9724 C.ar    1  UNL1        0.0101
     22 C           6.6240   43.1058    7.6059 C.ar    1  UNL1       -0.0206
     23 C           5.9702   44.4336    7.7374 C.3     1  UNL1        0.0311
     24 C           5.9993   41.9665    8.1162 C.ar    1  UNL1       -0.0045
     25 C           6.6212   40.7210    8.0048 C.ar    1  UNL1       -0.0034
     26 C           7.8626   40.6032    7.3707 C.ar    1  UNL1       -0.0084
     27 C           8.5214   39.2660    7.3626 C.3     1  UNL1        0.0323
@<TRIPOS>BOND
     1    18    19    1
     2    19    17    1
     3    15    17    1
     4    15     7    1
     5     8    13   ar
     6     9     8    1
     7    10     3    1
     8     1     4   am
     9    21    22   ar
    10    23    22    1
    11    24    25   ar
    12    26    20   ar
    13    27    26    1
    14    11     7   ar
    15    12    11    1
    16    13    10   ar
    17     3     1   am
    18     4    20    1
    19    15    16    2
    20     7     8   ar
    21    10    11   ar
    22     1     2    2
    23    20    21   ar
    24    22    24   ar
    25    25    26   ar
    26    13    14    1
    27     3     5    1
    28     4     6    1
@<TRIPOS>MOLECULE
MolPort-002-455-714 568498 CSC026735676 CSSS00026735676 ChemDiv-D039-0035 MCULE-8704836685 PubChem-959515 Z57244559 ZINC000000568498 ZINC00568498
 27 28 0 0 0
SMALL
GASTEIGER

@<TRIPOS>ATOM
      1 C           8.3734   42.4262    9.3754 C.2     1  UNL1        0.3092
      2 O           8.1957   41.2684    8.9080 O.2     1  UNL1       -0.2521
      3 N           9.6949   42.9326    9.5866 N.am    1  UNL1       -0.2551
      4 N           7.2534   43.2696    9.6601 N.am    1  UNL1       -0.2683
      5 H           9.7802   43.8534    9.9244 H       1  UNL1        0.1578
      6 H           7.4342   44.2210    9.8374 H       1  UNL1        0.1564
      7 C          12.5462   40.7423    9.5687 C.ar    1  UNL1        0.0857
      8 C          12.7303   41.5373    8.4436 C.ar    1  UNL1        0.0408
      9 C          13.8683   41.4538    7.4854 C.3     1  UNL1        0.0500
     10 C          10.9031   42.2026    9.3442 C.ar    1  UNL1        0.1085
     11 C          11.3657   41.1787   10.1420 C.ar    1  UNL1        0.0153
     12 C          10.7066   40.6611   11.3758 C.3     1  UNL1        0.0342
     13 N          11.7291   42.4298    8.3029 N.ar    1  UNL1       -0.3451
     14 H          11.6238   43.1030    7.5923 H       1  UNL1        0.1668
     15 C          13.4229   39.6576   10.0558 C.2     1  UNL1        0.3421
     16 O          14.2654   39.8867   10.9662 O.2     1  UNL1       -0.2449
     17 O          13.3162   38.3781    9.5065 O.3     1  UNL1       -0.4454
     18 C          12.0213   36.4771   10.1799 C.3     1  UNL1        0.0513
     19 C          12.0623   37.7345    9.3370 C.3     1  UNL1        0.2089
     20 C           5.8880   42.8351    9.7069 C.ar    1  UNL1        0.0472
     21 C           5.5716   41.7338   10.5105 C.ar    1  UNL1        0.0101
     22 C           4.2595   41.2603   10.5831 C.ar    1  UNL1       -0.0206
     23 C           3.9356   40.1000   11.4528 C.3     1  UNL1        0.0311
     24 C           3.2529   41.8765    9.8378 C.ar    1  UNL1       -0.0045
     25 C           3.5610   42.9580    9.0095 C.ar    1  UNL1       -0.0034
     26 C           4.8720   43.4399    8.9317 C.ar    1  UNL1       -0.0084
     27 C           5.1597   44.5354    7.9627 C.3     1  UNL1        0.0323
@<TRIPOS>BOND
     1    18    19    1
     2    19    17    1
     3    15    17    1
     4    15     7    1
     5     8    13   ar
     6     9     8    1
     7    10     3    1
     8     1     4   am
     9    21    22   ar
    10    23    22    1
    11    24    25   ar
    12    26    20   ar
    13    27    26    1
    14    11     7   ar
    15    12    11    1
    16    13    10   ar
    17     3     1   am
    18     4    20    1
    19    15    16    2
    20     7     8   ar
    21    10    11   ar
    22     1     2    2
    23    20    21   ar
    24    22    24   ar
    25    25    26   ar
    26    13    14    1
    27     3     5    1
    28     4     6    1
@<TRIPOS>MOLECULE
MolPort-002-455-714 568498 CSC026735676 CSSS00026735676 ChemDiv-D039-0035 MCULE-8704836685 PubChem-959515 Z57244559 ZINC000000568498 ZINC00568498
 27 28 0 0 0
SMALL
GASTEIGER

@<TRIPOS>ATOM
      1 C           9.1446   41.8441    7.8519 C.2     1  UNL1        0.3092
      2 O           9.4429   42.7971    8.6221 O.2     1  UNL1       -0.2521
      3 N          10.1430   41.2291    7.0318 N.am    1  UNL1       -0.2551
      4 N           7.8089   41.3328    7.8197 N.am    1  UNL1       -0.2683
      5 H           9.8655   40.4690    6.4709 H       1  UNL1        0.1578
      6 H           7.6609   40.4762    7.3575 H       1  UNL1        0.1564
      7 C          13.6723   41.8001    7.4134 C.ar    1  UNL1        0.0857
      8 C          13.3180   42.6113    6.3417 C.ar    1  UNL1        0.0408
      9 C          14.2352   43.4931    5.5665 C.3     1  UNL1        0.0500
     10 C          11.5150   41.6345    6.9645 C.ar    1  UNL1        0.1085
     11 C          12.5035   41.1745    7.8073 C.ar    1  UNL1        0.0153
     12 C          12.3242   40.1959    8.9184 C.3     1  UNL1        0.0342
     13 N          12.0018   42.5126    6.0645 N.ar    1  UNL1       -0.3451
     14 H          11.5033   42.9813    5.3567 H       1  UNL1        0.1668
     15 C          15.0132   41.6358    8.0111 C.2     1  UNL1        0.3421
     16 O          15.3159   40.5616    8.5989 O.2     1  UNL1       -0.2449
     17 O          15.9451   42.6722    7.9232 O.3     1  UNL1       -0.4454
     18 C          17.3934   41.2184    9.1615 C.3     1  UNL1        0.0513
     19 C          17.2363   42.5741    8.5051 C.3     1  UNL1        0.2089
     20 C           6.6693   41.9725    8.4093 C.ar    1  UNL1        0.0472
     21 C           6.0908   41.3829    9.5391 C.ar    1  UNL1        0.0101
     22 C           4.9712   41.9568   10.1459 C.ar    1  UNL1       -0.0206
     23 C           4.3773   41.3284   11.3543 C.3     1  UNL1        0.0311
     24 C           4.4098   43.1200    9.6165 C.ar    1  UNL1       -0.0045
     25 C           4.9600   43.7019    8.4724 C.ar    1  UNL1       -0.0034
     26 C           6.0821   43.1349    7.8588 C.ar    1  UNL1       -0.0084
     27 C           6.5699   43.7448    6.5892 C.3     1  UNL1        0.0323
@<TRIPOS>BOND
     1    18    19    1
     2    19    17    1
     3    15    17    1
     4    15     7    1
     5     8    13   ar
     6     9     8    1
     7    10     3    1
     8     1     4   am
     9    21    22   ar
    10    23    22    1
    11    24    25   ar
    12    26    20   ar
    13    27    26    1
    14    11     7   ar
    15    12    11    1
    16    13    10   ar
    17     3     1   am
    18     4    20    1
    19    15    16    2
    20     7     8   ar
    21    10    11   ar
    22     1     2    2
    23    20    21   ar
    24    22    24   ar
    25    25    26   ar
    26    13    14    1
    27     3     5    1
    28     4     6    1
@<TRIPOS>MOLECULE
MolPort-002-455-714 568498 CSC026735676 CSSS00026735676 ChemDiv-D039-0035 MCULE-8704836685 PubChem-959515 Z57244559 ZINC000000568498 ZINC00568498
 27 28 0 0 0
SMALL
GASTEIGER

@<TRIPOS>ATOM
      1 C          12.0331   41.9946    7.7955 C.2     1  UNL1        0.3092
      2 O          12.0778   42.8698    8.7024 O.2     1  UNL1       -0.2521
      3 N          10.7789   41.4705    7.3486 N.am    1  UNL1       -0.2551
      4 N          13.2368   41.5442    7.1669 N.am    1  UNL1       -0.2683
      5 H          10.7961   40.8119    6.6171 H       1  UNL1        0.1578
      6 H          13.1480   41.0124    6.3432 H       1  UNL1        0.1564
      7 C           7.7864   42.0106    9.2673 C.ar    1  UNL1        0.0857
      8 C           7.5413   42.6789    8.0734 C.ar    1  UNL1        0.0408
      9 C           6.3030   43.4310    7.7258 C.3     1  UNL1        0.0500
     10 C           9.5002   41.8307    7.8841 C.ar    1  UNL1        0.1085
     11 C           9.0516   41.4677    9.1355 C.ar    1  UNL1        0.0153
     12 C           9.8000   40.6497   10.1330 C.3     1  UNL1        0.0342
     13 N           8.5854   42.5716    7.2266 N.ar    1  UNL1       -0.3451
     14 H           8.6630   42.9526    6.3221 H       1  UNL1        0.1668
     15 C           6.8890   41.8994   10.4354 C.2     1  UNL1        0.3421
     16 O           7.3718   41.7570   11.5921 O.2     1  UNL1       -0.2449
     17 O           5.5050   41.9530   10.2563 O.3     1  UNL1       -0.4454
     18 C           4.1150   40.3220   11.3297 C.3     1  UNL1        0.0513
     19 C           4.5992   41.7569   11.3317 C.3     1  UNL1        0.2089
     20 C          14.5623   41.8083    7.6449 C.ar    1  UNL1        0.0472
     21 C          15.2999   42.8221    7.0229 C.ar    1  UNL1        0.0101
     22 C          16.6010   43.1128    7.4398 C.ar    1  UNL1       -0.0206
     23 C          17.3663   44.2025    6.7807 C.3     1  UNL1        0.0311
     24 C          17.1824   42.3789    8.4751 C.ar    1  UNL1       -0.0045
     25 C          16.4676   41.3453    9.0844 C.ar    1  UNL1       -0.0034
     26 C          15.1636   41.0482    8.6743 C.ar    1  UNL1       -0.0084
     27 C          14.4832   39.8765    9.2957 C.3     1  UNL1        0.0323
@<TRIPOS>BOND
     1    18    19    1
     2    19    17    1
     3    15    17    1
     4    15     7    1
     5     8    13   ar
     6     9     8    1
     7    10     3    1
     8     1     4   am
     9    21    22   ar
    10    23    22    1
    11    24    25   ar
    12    26    20   ar
    13    27    26    1
    14    11     7   ar
    15    12    11    1
    16    13    10   ar
    17     3     1   am
    18     4    20    1
    19    15    16    2
    20     7     8   ar
    21    10    11   ar
    22     1     2    2
    23    20    21   ar
    24    22    24   ar
    25    25    26   ar
    26    13    14    1
    27     3     5    1
    28     4     6    1
@<TRIPOS>MOLECULE
MolPort-002-455-714 568498 CSC026735676 CSSS00026735676 ChemDiv-D039-0035 MCULE-8704836685 PubChem-959515 Z57244559 ZINC000000568498 ZINC00568498
 27 28 0 0 0
SMALL
GASTEIGER

@<TRIPOS>ATOM
      1 C          10.1797   40.2843    9.0066 C.2     1  UNL1        0.3092
      2 O          10.8982   41.1925    8.5074 O.2     1  UNL1       -0.2521
      3 N          10.7724   39.1941    9.7191 N.am    1  UNL1       -0.2551
      4 N           8.7542   40.3543    8.9061 N.am    1  UNL1       -0.2683
      5 H          10.1664   38.5274   10.1160 H       1  UNL1        0.1578
      6 H           8.2282   39.7391    9.4666 H       1  UNL1        0.1564
      7 C          14.1170   38.0410   10.3608 C.ar    1  UNL1        0.0857
      8 C          14.2913   39.3598    9.9579 C.ar    1  UNL1        0.0408
      9 C          15.5916   40.0771    9.8373 C.3     1  UNL1        0.0500
     10 C          12.1798   38.9985    9.8992 C.ar    1  UNL1        0.1085
     11 C          12.7527   37.8178   10.3193 C.ar    1  UNL1        0.0153
     12 C          12.0250   36.5606   10.6573 C.3     1  UNL1        0.0342
     13 N          13.1109   39.9476    9.6749 N.ar    1  UNL1       -0.3451
     14 H          12.9612   40.8716    9.3698 H       1  UNL1        0.1668
     15 C          15.1640   37.0753   10.7526 C.2     1  UNL1        0.3421
     16 O          15.4321   36.8936   11.9717 O.2     1  UNL1       -0.2449
     17 O          15.8557   36.3635    9.7701 O.3     1  UNL1       -0.4454
     18 C          15.6922   35.6569    7.4858 C.3     1  UNL1        0.0513
     19 C          15.2020   35.4487    8.9034 C.3     1  UNL1        0.2089
     20 C           8.0334   41.2518    8.0516 C.ar    1  UNL1        0.0472
     21 C           7.5488   42.4435    8.6026 C.ar    1  UNL1        0.0101
     22 C           6.8288   43.3481    7.8187 C.ar    1  UNL1       -0.0206
     23 C           6.3340   44.6167    8.4132 C.3     1  UNL1        0.0311
     24 C           6.5734   43.0597    6.4770 C.ar    1  UNL1       -0.0045
     25 C           7.0264   41.8605    5.9228 C.ar    1  UNL1       -0.0034
     26 C           7.7494   40.9493    6.7000 C.ar    1  UNL1       -0.0084
     27 C           8.1273   39.6463    6.0825 C.3     1  UNL1        0.0323
@<TRIPOS>BOND
     1    18    19    1
     2    19    17    1
     3    15    17    1
     4    15     7    1
     5     8    13   ar
     6     9     8    1
     7    10     3    1
     8     1     4   am
     9    21    22   ar
    10    23    22    1
    11    24    25   ar
    12    26    20   ar
    13    27    26    1
    14    11     7   ar
    15    12    11    1
    16    13    10   ar
    17     3     1   am
    18     4    20    1
    19    15    16    2
    20     7     8   ar
    21    10    11   ar
    22     1     2    2
    23    20    21   ar
    24    22    24   ar
    25    25    26   ar
    26    13    14    1
    27     3     5    1
    28     4     6    1
