@<TRIPOS>MOLECULE
MolPort-006-580-041 ChemDiv-V020-6525 MCULE-7808711997 PubChem-46041007 ZINC000037544204 ZINC37544204
 29 31 0 0 0
SMALL
GASTEIGER

@<TRIPOS>ATOM
      1 C          12.5498   39.9724   10.9315 C.3     1  UNL1        0.1015
      2 C          13.2431   39.0210    9.9704 C.3     1  UNL1        0.0435
      3 C          14.0337   39.8135    8.9334 C.3     1  UNL1        0.0971
      4 C          12.0204   41.3563    8.9381 C.2     1  UNL1        0.3112
      5 N          11.5956   40.8068   10.2031 N.am    1  UNL1       -0.2430
      6 N          13.2436   40.8914    8.3350 N.am    1  UNL1       -0.2596
      7 O          11.3387   42.2491    8.3640 O.2     1  UNL1       -0.2520
      8 C           7.9413   41.6355   10.5919 C.ar    1  UNL1        0.0528
      9 C           9.1853   41.3676   10.0120 C.ar    1  UNL1        0.0297
     10 C          10.3153   41.1038   10.8041 C.ar    1  UNL1        0.0565
     11 C          10.1700   41.0982   12.2014 C.ar    1  UNL1        0.0150
     12 C           8.9319   41.3638   12.7903 C.ar    1  UNL1        0.0026
     13 C           7.8216   41.6328   11.9884 C.ar    1  UNL1        0.0148
     14 C           6.5777   43.1069    8.9946 C.2     1  UNL1        0.3045
     15 N           5.4044   43.1944    8.1866 N.am    1  UNL1       -0.2887
     16 N           6.8241   41.9038    9.7334 N.am    1  UNL1       -0.2683
     17 O           7.3795   44.0785    9.0512 O.2     1  UNL1       -0.2525
     18 H           4.7895   42.4263    8.1537 H       1  UNL1        0.1510
     19 H           6.1563   41.1862    9.6421 H       1  UNL1        0.1564
     20 C           3.7444   44.9255    7.8444 C.3     1  UNL1        0.0230
     21 C           5.0894   44.3823    7.4110 C.3     1  UNL1        0.0910
     22 C          13.7532   41.4963    7.1095 C.3     1  UNL1        0.1217
     23 C          14.9952   42.2780    7.3832 C.ar    1  UNL1       -0.0001
     24 C          15.9043   41.8303    8.3477 C.ar    1  UNL1       -0.0025
     25 C          17.0727   42.5561    8.5995 C.ar    1  UNL1        0.0020
     26 C          17.3336   43.7304    7.8866 C.ar    1  UNL1        0.0296
     27 C          16.4263   44.1790    6.9219 C.ar    1  UNL1        0.1399
     28 C          15.2581   43.4535    6.6698 C.ar    1  UNL1        0.0270
     29 F          16.6795   45.3161    6.2309 F       1  UNL1       -0.2042
@<TRIPOS>BOND
     1    20    21    1
     2    21    15    1
     3    14    16   am
     4     9    10   ar
     5    10     5    1
     6    11    12   ar
     7    13     8   ar
     8     1     5    1
     9     1     2    1
    10     2     3    1
    11     3     6    1
    12    22     6    1
    13    22    23    1
    14    24    25   ar
    15    26    27   ar
    16    27    29    1
    17    28    23   ar
    18     4     5   am
    19    15    14   am
    20    16     8    1
    21     6     4   am
    22    14    17    2
    23     8     9   ar
    24    10    11   ar
    25    12    13   ar
    26    23    24   ar
    27    25    26   ar
    28    27    28   ar
    29     4     7    2
    30    15    18    1
    31    16    19    1
@<TRIPOS>MOLECULE
MolPort-006-580-041 ChemDiv-V020-6525 MCULE-7808711997 PubChem-46041007 ZINC000037544204 ZINC37544204
 29 31 0 0 0
SMALL
GASTEIGER

@<TRIPOS>ATOM
      1 C          12.5396   39.5803    8.1497 C.3     1  UNL1        0.1015
      2 C          12.4601   41.0172    8.6379 C.3     1  UNL1        0.0435
      3 C          13.7814   41.7318    8.3697 C.3     1  UNL1        0.0971
      4 C          14.8314   39.5436    9.1066 C.2     1  UNL1        0.3112
      5 N          13.5786   38.8620    8.8858 N.am    1  UNL1       -0.2430
      6 N          14.9375   40.9503    8.8135 N.am    1  UNL1       -0.2596
      7 O          15.8366   38.9162    9.5392 O.2     1  UNL1       -0.2520
      8 C          13.9230   35.1249    9.2135 C.ar    1  UNL1        0.0528
      9 C          14.1398   36.4455    8.8077 C.ar    1  UNL1        0.0297
     10 C          13.3402   37.4951    9.2901 C.ar    1  UNL1        0.0565
     11 C          12.3195   37.1954   10.2077 C.ar    1  UNL1        0.0150
     12 C          12.0953   35.8801   10.6198 C.ar    1  UNL1        0.0026
     13 C          12.8934   34.8481   10.1234 C.ar    1  UNL1        0.0148
     14 C          16.1997   34.0629    8.6988 C.2     1  UNL1        0.3045
     15 N          16.8740   32.9465    8.1192 N.am    1  UNL1       -0.2887
     16 N          14.7669   34.0935    8.6831 N.am    1  UNL1       -0.2683
     17 O          16.8629   35.0033    9.2145 O.2     1  UNL1       -0.2525
     18 H          16.3406   32.2209    7.7214 H       1  UNL1        0.1510
     19 H          14.3143   33.3260    8.2644 H       1  UNL1        0.1564
     20 C          18.7966   32.1079    9.3316 C.3     1  UNL1        0.0230
     21 C          18.3237   32.8476    8.0983 C.3     1  UNL1        0.0910
     22 C          16.2138   41.6467    8.9292 C.3     1  UNL1        0.1217
     23 C          16.4263   42.5568    7.7651 C.ar    1  UNL1       -0.0001
     24 C          17.6983   43.0807    7.5108 C.ar    1  UNL1       -0.0025
     25 C          17.9017   43.9263    6.4159 C.ar    1  UNL1        0.0020
     26 C          16.8331   44.2487    5.5736 C.ar    1  UNL1        0.0296
     27 C          15.5613   43.7256    5.8260 C.ar    1  UNL1        0.1399
     28 C          15.3576   42.8800    6.9205 C.ar    1  UNL1        0.0270
     29 F          14.5265   44.0374    5.0096 F       1  UNL1       -0.2042
@<TRIPOS>BOND
     1    20    21    1
     2    21    15    1
     3    14    16   am
     4     9    10   ar
     5    10     5    1
     6    11    12   ar
     7    13     8   ar
     8     1     5    1
     9     1     2    1
    10     2     3    1
    11     3     6    1
    12    22     6    1
    13    22    23    1
    14    24    25   ar
    15    26    27   ar
    16    27    29    1
    17    28    23   ar
    18     4     5   am
    19    15    14   am
    20    16     8    1
    21     6     4   am
    22    14    17    2
    23     8     9   ar
    24    10    11   ar
    25    12    13   ar
    26    23    24   ar
    27    25    26   ar
    28    27    28   ar
    29     4     7    2
    30    15    18    1
    31    16    19    1
@<TRIPOS>MOLECULE
MolPort-006-580-041 ChemDiv-V020-6525 MCULE-7808711997 PubChem-46041007 ZINC000037544204 ZINC37544204
 29 31 0 0 0
SMALL
GASTEIGER

@<TRIPOS>ATOM
      1 C          17.8977   39.8590    9.5790 C.3     1  UNL1        0.1015
      2 C          18.1521   39.4554   11.0218 C.3     1  UNL1        0.0435
      3 C          17.1335   38.4053   11.4558 C.3     1  UNL1        0.0971
      4 C          15.4823   39.8264   10.1566 C.2     1  UNL1        0.3112
      5 N          16.5725   40.4642    9.4584 N.am    1  UNL1       -0.2430
      6 N          15.7615   38.7845   11.1118 N.am    1  UNL1       -0.2596
      7 O          14.2882   40.1625    9.9272 O.2     1  UNL1       -0.2520
      8 C          15.0300   42.9225    7.0564 C.ar    1  UNL1        0.0528
      9 C          15.2093   41.8012    7.8725 C.ar    1  UNL1        0.0297
     10 C          16.3968   41.6131    8.5994 C.ar    1  UNL1        0.0565
     11 C          17.4045   42.5873    8.5041 C.ar    1  UNL1        0.0150
     12 C          17.2350   43.7110    7.6926 C.ar    1  UNL1        0.0026
     13 C          16.0524   43.8775    6.9701 C.ar    1  UNL1        0.0148
     14 C          12.6568   42.1966    6.4106 C.2     1  UNL1        0.3045
     15 N          11.5123   42.4911    5.6104 N.am    1  UNL1       -0.2887
     16 N          13.7991   43.0587    6.3329 N.am    1  UNL1       -0.2683
     17 O          12.6539   41.1909    7.1714 O.2     1  UNL1       -0.2525
     18 H          11.5316   43.2804    5.0224 H       1  UNL1        0.1510
     19 H          13.7318   43.8249    5.7184 H       1  UNL1        0.1564
     20 C          10.4783   40.5181    4.6576 C.3     1  UNL1        0.0230
     21 C          10.3193   41.6617    5.6368 C.3     1  UNL1        0.0910
     22 C          14.6801   38.0509   11.7596 C.3     1  UNL1        0.1217
     23 C          13.3561   38.4673   11.2098 C.ar    1  UNL1       -0.0001
     24 C          12.7936   39.6896   11.5928 C.ar    1  UNL1       -0.0025
     25 C          11.5577   40.0858   11.0724 C.ar    1  UNL1        0.0020
     26 C          10.8830   39.2602   10.1677 C.ar    1  UNL1        0.0296
     27 C          11.4440   38.0385    9.7834 C.ar    1  UNL1        0.1399
     28 C          12.6797   37.6421   10.3034 C.ar    1  UNL1        0.0270
     29 F          10.7907   37.2392    8.9065 F       1  UNL1       -0.2042
@<TRIPOS>BOND
     1    20    21    1
     2    21    15    1
     3    14    16   am
     4     9    10   ar
     5    10     5    1
     6    11    12   ar
     7    13     8   ar
     8     1     5    1
     9     1     2    1
    10     2     3    1
    11     3     6    1
    12    22     6    1
    13    22    23    1
    14    24    25   ar
    15    26    27   ar
    16    27    29    1
    17    28    23   ar
    18     4     5   am
    19    15    14   am
    20    16     8    1
    21     6     4   am
    22    14    17    2
    23     8     9   ar
    24    10    11   ar
    25    12    13   ar
    26    23    24   ar
    27    25    26   ar
    28    27    28   ar
    29     4     7    2
    30    15    18    1
    31    16    19    1
@<TRIPOS>MOLECULE
MolPort-006-580-041 ChemDiv-V020-6525 MCULE-7808711997 PubChem-46041007 ZINC000037544204 ZINC37544204
 29 31 0 0 0
SMALL
GASTEIGER

@<TRIPOS>ATOM
      1 C          11.5762   41.3593    5.8503 C.3     1  UNL1        0.1015
      2 C          10.7999   40.1009    6.2014 C.3     1  UNL1        0.0435
      3 C           9.6675   40.4402    7.1663 C.3     1  UNL1        0.0971
      4 C          11.3790   41.9661    8.2507 C.2     1  UNL1        0.3112
      5 N          12.1859   41.9195    7.0551 N.am    1  UNL1       -0.2430
      6 N          10.1195   41.2673    8.2869 N.am    1  UNL1       -0.2596
      7 O          11.7594   42.6244    9.2574 O.2     1  UNL1       -0.2520
      8 C          15.8733   42.4188    7.6439 C.ar    1  UNL1        0.0528
      9 C          14.5748   41.9064    7.7287 C.ar    1  UNL1        0.0297
     10 C          13.5230   42.4632    6.9820 C.ar    1  UNL1        0.0565
     11 C          13.8029   43.5437    6.1289 C.ar    1  UNL1        0.0150
     12 C          15.0963   44.0622    6.0364 C.ar    1  UNL1        0.0026
     13 C          16.1277   43.5027    6.7923 C.ar    1  UNL1        0.0148
     14 C          16.8084   40.6023    9.1936 C.2     1  UNL1        0.3045
     15 N          17.9481   40.1503    9.9242 N.am    1  UNL1       -0.2887
     16 N          16.9060   41.8139    8.4341 N.am    1  UNL1       -0.2683
     17 O          15.7362   39.9392    9.2219 O.2     1  UNL1       -0.2525
     18 H          18.7772   40.6801    9.8905 H       1  UNL1        0.1510
     19 H          17.7730   42.2797    8.4573 H       1  UNL1        0.1564
     20 C          16.6256   38.8636   11.4942 C.3     1  UNL1        0.0230
     21 C          17.9225   38.9321   10.7162 C.3     1  UNL1        0.0910
     22 C           9.2339   41.3761    9.4407 C.3     1  UNL1        0.1217
     23 C           7.9928   42.1257    9.0850 C.ar    1  UNL1       -0.0001
     24 C           8.0736   43.4676    8.6981 C.ar    1  UNL1       -0.0025
     25 C           6.9135   44.1692    8.3559 C.ar    1  UNL1        0.0020
     26 C           5.6710   43.5293    8.3998 C.ar    1  UNL1        0.0296
     27 C           5.5884   42.1880    8.7857 C.ar    1  UNL1        0.1399
     28 C           6.7482   41.4862    9.1278 C.ar    1  UNL1        0.0270
     29 F           4.3849   41.5681    8.8274 F       1  UNL1       -0.2042
@<TRIPOS>BOND
     1    20    21    1
     2    21    15    1
     3    14    16   am
     4     9    10   ar
     5    10     5    1
     6    11    12   ar
     7    13     8   ar
     8     1     5    1
     9     1     2    1
    10     2     3    1
    11     3     6    1
    12    22     6    1
    13    22    23    1
    14    24    25   ar
    15    26    27   ar
    16    27    29    1
    17    28    23   ar
    18     4     5   am
    19    15    14   am
    20    16     8    1
    21     6     4   am
    22    14    17    2
    23     8     9   ar
    24    10    11   ar
    25    12    13   ar
    26    23    24   ar
    27    25    26   ar
    28    27    28   ar
    29     4     7    2
    30    15    18    1
    31    16    19    1
@<TRIPOS>MOLECULE
MolPort-006-580-041 ChemDiv-V020-6525 MCULE-7808711997 PubChem-46041007 ZINC000037544204 ZINC37544204
 29 31 0 0 0
SMALL
GASTEIGER

@<TRIPOS>ATOM
      1 C          11.4900   40.7727    5.6144 C.3     1  UNL1        0.1015
      2 C          10.6535   39.6626    6.2287 C.3     1  UNL1        0.0435
      3 C           9.3421   40.2328    6.7610 C.3     1  UNL1        0.0971
      4 C          10.7864   42.1636    7.5482 C.2     1  UNL1        0.3112
      5 N          11.8298   41.7621    6.6356 N.am    1  UNL1       -0.2430
      6 N           9.5465   41.4304    7.5785 N.am    1  UNL1       -0.2596
      7 O          10.9447   43.1584    8.3077 O.2     1  UNL1       -0.2520
      8 C          15.4021   42.4938    7.5821 C.ar    1  UNL1        0.0528
      9 C          14.1151   41.9467    7.5866 C.ar    1  UNL1        0.0297
     10 C          13.1530   42.3433    6.6426 C.ar    1  UNL1        0.0565
     11 C          13.5135   43.2961    5.6752 C.ar    1  UNL1        0.0150
     12 C          14.7963   43.8478    5.6617 C.ar    1  UNL1        0.0026
     13 C          15.7370   43.4491    6.6127 C.ar    1  UNL1        0.0148
     14 C          16.4537   40.7380    9.1273 C.2     1  UNL1        0.3045
     15 N          17.4554   40.4849   10.1119 N.am    1  UNL1       -0.2887
     16 N          16.3409   42.0553    8.5738 N.am    1  UNL1       -0.2683
     17 O          15.6843   39.8105    8.7560 O.2     1  UNL1       -0.2525
     18 H          18.0478   41.2205   10.3898 H       1  UNL1        0.1510
     19 H          16.9743   42.7300    8.9097 H       1  UNL1        0.1564
     20 C          16.5274   38.9385   11.7297 C.3     1  UNL1        0.0230
     21 C          17.6278   39.1750   10.7171 C.3     1  UNL1        0.0910
     22 C           8.4352   41.8696    8.4149 C.3     1  UNL1        0.1217
     23 C           8.7305   41.6236    9.8574 C.ar    1  UNL1       -0.0001
     24 C           7.7339   41.8233   10.8187 C.ar    1  UNL1       -0.0025
     25 C           8.0055   41.5850   12.1695 C.ar    1  UNL1        0.0020
     26 C           9.2742   41.1460   12.5606 C.ar    1  UNL1        0.0296
     27 C          10.2713   40.9453   11.6012 C.ar    1  UNL1        0.1399
     28 C          10.0000   41.1834   10.2505 C.ar    1  UNL1        0.0270
     29 F          11.4999   40.5194   11.9802 F       1  UNL1       -0.2042
@<TRIPOS>BOND
     1    20    21    1
     2    21    15    1
     3    14    16   am
     4     9    10   ar
     5    10     5    1
     6    11    12   ar
     7    13     8   ar
     8     1     5    1
     9     1     2    1
    10     2     3    1
    11     3     6    1
    12    22     6    1
    13    22    23    1
    14    24    25   ar
    15    26    27   ar
    16    27    29    1
    17    28    23   ar
    18     4     5   am
    19    15    14   am
    20    16     8    1
    21     6     4   am
    22    14    17    2
    23     8     9   ar
    24    10    11   ar
    25    12    13   ar
    26    23    24   ar
    27    25    26   ar
    28    27    28   ar
    29     4     7    2
    30    15    18    1
    31    16    19    1
@<TRIPOS>MOLECULE
MolPort-006-580-041 ChemDiv-V020-6525 MCULE-7808711997 PubChem-46041007 ZINC000037544204 ZINC37544204
 29 31 0 0 0
SMALL
GASTEIGER

@<TRIPOS>ATOM
      1 C           8.3405   42.1498   11.7674 C.3     1  UNL1        0.1015
      2 C           9.6224   41.4252   12.1427 C.3     1  UNL1        0.0435
      3 C          10.6937   41.6821   11.0869 C.3     1  UNL1        0.0971
      4 C           8.7853   41.4098    9.4385 C.2     1  UNL1        0.3112
      5 N           7.8312   41.6336   10.4980 N.am    1  UNL1       -0.2430
      6 N          10.1957   41.4735    9.7258 N.am    1  UNL1       -0.2596
      7 O           8.3955   41.1739    8.2622 O.2     1  UNL1       -0.2520
      8 C           4.1511   41.3852   11.2646 C.ar    1  UNL1        0.0528
      9 C           5.5305   41.5499   11.4256 C.ar    1  UNL1        0.0297
     10 C           6.4081   41.4428   10.3337 C.ar    1  UNL1        0.0565
     11 C           5.8704   41.1803    9.0626 C.ar    1  UNL1        0.0150
     12 C           4.4944   41.0149    8.8911 C.ar    1  UNL1        0.0026
     13 C           3.6378   41.1156    9.9885 C.ar    1  UNL1        0.0148
     14 C           2.0055   42.1034   12.4714 C.2     1  UNL1        0.3045
     15 N           1.3051   42.1255   13.7148 N.am    1  UNL1       -0.2887
     16 N           3.3042   41.4997   12.4164 N.am    1  UNL1       -0.2683
     17 O           1.4816   42.6097   11.4422 O.2     1  UNL1       -0.2525
     18 H           1.7288   41.7252   14.5081 H       1  UNL1        0.1510
     19 H           3.6515   41.1241   13.2576 H       1  UNL1        0.1564
     20 C          -1.0605   41.6268   13.8713 C.3     1  UNL1        0.0230
     21 C          -0.0142   42.7206   13.8458 C.3     1  UNL1        0.0910
     22 C          11.1846   41.3525    8.6605 C.3     1  UNL1        0.1217
     23 C          12.4761   40.8291    9.1959 C.ar    1  UNL1       -0.0001
     24 C          13.6819   41.1818    8.5804 C.ar    1  UNL1       -0.0025
     25 C          14.8935   40.6999    9.0853 C.ar    1  UNL1        0.0020
     26 C          14.9008   39.8650   10.2070 C.ar    1  UNL1        0.0296
     27 C          13.6967   39.5120   10.8238 C.ar    1  UNL1        0.1399
     28 C          12.4851   39.9937   10.3192 C.ar    1  UNL1        0.0270
     29 F          13.7040   38.7038   11.9107 F       1  UNL1       -0.2042
@<TRIPOS>BOND
     1    20    21    1
     2    21    15    1
     3    14    16   am
     4     9    10   ar
     5    10     5    1
     6    11    12   ar
     7    13     8   ar
     8     1     5    1
     9     1     2    1
    10     2     3    1
    11     3     6    1
    12    22     6    1
    13    22    23    1
    14    24    25   ar
    15    26    27   ar
    16    27    29    1
    17    28    23   ar
    18     4     5   am
    19    15    14   am
    20    16     8    1
    21     6     4   am
    22    14    17    2
    23     8     9   ar
    24    10    11   ar
    25    12    13   ar
    26    23    24   ar
    27    25    26   ar
    28    27    28   ar
    29     4     7    2
    30    15    18    1
    31    16    19    1
@<TRIPOS>MOLECULE
MolPort-006-580-041 ChemDiv-V020-6525 MCULE-7808711997 PubChem-46041007 ZINC000037544204 ZINC37544204
 29 31 0 0 0
SMALL
GASTEIGER

@<TRIPOS>ATOM
      1 C           9.4412   41.2876    8.0849 C.3     1  UNL1        0.1015
      2 C           8.0620   40.6688    7.9297 C.3     1  UNL1        0.0435
      3 C           7.0805   41.3382    8.8874 C.3     1  UNL1        0.0971
      4 C           9.0108   41.2583   10.5309 C.2     1  UNL1        0.3112
      5 N           9.9371   41.0627    9.4416 N.am    1  UNL1       -0.2430
      6 N           7.6085   41.4328   10.2499 N.am    1  UNL1       -0.2596
      7 O           9.4198   41.2924   11.7238 O.2     1  UNL1       -0.2520
      8 C          13.6819   40.9987    9.0359 C.ar    1  UNL1        0.0528
      9 C          12.3318   41.3020    8.8340 C.ar    1  UNL1        0.0297
     10 C          11.3303   40.7325    9.6381 C.ar    1  UNL1        0.0565
     11 C          11.7125   39.8570   10.6683 C.ar    1  UNL1        0.0150
     12 C          13.0581   39.5483   10.8786 C.ar    1  UNL1        0.0026
     13 C          14.0394   40.1161   10.0644 C.ar    1  UNL1        0.0148
     14 C          14.4140   42.5369    7.1191 C.2     1  UNL1        0.3045
     15 N          15.5195   43.0383    6.3686 N.am    1  UNL1       -0.2887
     16 N          14.6601   41.6054    8.1802 N.am    1  UNL1       -0.2683
     17 O          13.2420   42.9134    6.8455 O.2     1  UNL1       -0.2525
     18 H          16.4278   42.7340    6.5960 H       1  UNL1        0.1510
     19 H          15.5992   41.3557    8.3383 H       1  UNL1        0.1564
     20 C          15.3113   45.3921    5.8344 C.3     1  UNL1        0.0230
     21 C          15.3460   43.9842    5.2791 C.3     1  UNL1        0.0910
     22 C           6.6610   41.7328   11.3175 C.3     1  UNL1        0.1217
     23 C           5.2566   41.6268   10.8224 C.ar    1  UNL1       -0.0001
     24 C           4.9936   41.0135    9.5928 C.ar    1  UNL1       -0.0025
     25 C           3.6782   40.9051    9.1311 C.ar    1  UNL1        0.0020
     26 C           2.6240   41.4095    9.8989 C.ar    1  UNL1        0.0296
     27 C           2.8850   42.0223   11.1283 C.ar    1  UNL1        0.1399
     28 C           4.2001   42.1307   11.5903 C.ar    1  UNL1        0.0270
     29 F           1.8637   42.5102   11.8722 F       1  UNL1       -0.2042
@<TRIPOS>BOND
     1    20    21    1
     2    21    15    1
     3    14    16   am
     4     9    10   ar
     5    10     5    1
     6    11    12   ar
     7    13     8   ar
     8     1     5    1
     9     1     2    1
    10     2     3    1
    11     3     6    1
    12    22     6    1
    13    22    23    1
    14    24    25   ar
    15    26    27   ar
    16    27    29    1
    17    28    23   ar
    18     4     5   am
    19    15    14   am
    20    16     8    1
    21     6     4   am
    22    14    17    2
    23     8     9   ar
    24    10    11   ar
    25    12    13   ar
    26    23    24   ar
    27    25    26   ar
    28    27    28   ar
    29     4     7    2
    30    15    18    1
    31    16    19    1
@<TRIPOS>MOLECULE
MolPort-006-580-041 ChemDiv-V020-6525 MCULE-7808711997 PubChem-46041007 ZINC000037544204 ZINC37544204
 29 31 0 0 0
SMALL
GASTEIGER

@<TRIPOS>ATOM
      1 C           9.9176   40.8431    7.3571 C.3     1  UNL1        0.1015
      2 C          10.6344   41.6255    6.2693 C.3     1  UNL1        0.0435
      3 C          12.1058   41.2237    6.2228 C.3     1  UNL1        0.0971
      4 C          11.9342   41.2337    8.7534 C.2     1  UNL1        0.3112
      5 N          10.4958   41.1616    8.6615 N.am    1  UNL1       -0.2430
      6 N          12.7256   41.2245    7.5495 N.am    1  UNL1       -0.2596
      7 O          12.5042   41.2898    9.8774 O.2     1  UNL1       -0.2520
      8 C           7.4260   41.8204   10.7436 C.ar    1  UNL1        0.0528
      9 C           8.2780   41.6913    9.6421 C.ar    1  UNL1        0.0297
     10 C           9.6220   41.3146    9.8024 C.ar    1  UNL1        0.0565
     11 C          10.0964   41.0523   11.0985 C.ar    1  UNL1        0.0150
     12 C           9.2536   41.1777   12.2049 C.ar    1  UNL1        0.0026
     13 C           7.9233   41.5617   12.0283 C.ar    1  UNL1        0.0148
     14 C           5.5781   43.0696    9.4784 C.2     1  UNL1        0.3045
     15 N           4.1807   43.3522    9.4122 N.am    1  UNL1       -0.2887
     16 N           6.0651   42.2138   10.5199 N.am    1  UNL1       -0.2683
     17 O           6.3647   43.5697    8.6291 O.2     1  UNL1       -0.2525
     18 H           3.5809   42.9529   10.0830 H       1  UNL1        0.1510
     19 H           5.3950   41.8587   11.1477 H       1  UNL1        0.1564
     20 C           4.7287   44.9713    7.6954 C.3     1  UNL1        0.0230
     21 C           3.6159   44.2111    8.3850 C.3     1  UNL1        0.0910
     22 C          14.1826   41.1945    7.6095 C.3     1  UNL1        0.1217
     23 C          14.7582   42.4792    7.1127 C.ar    1  UNL1       -0.0001
     24 C          14.0057   43.3015    6.2674 C.ar    1  UNL1       -0.0025
     25 C          14.5393   44.5095    5.8079 C.ar    1  UNL1        0.0020
     26 C          15.8263   44.8970    6.1938 C.ar    1  UNL1        0.0296
     27 C          16.5796   44.0766    7.0391 C.ar    1  UNL1        0.1399
     28 C          16.0463   42.8687    7.4988 C.ar    1  UNL1        0.0270
     29 F          17.8259   44.4524    7.4134 F       1  UNL1       -0.2042
@<TRIPOS>BOND
     1    20    21    1
     2    21    15    1
     3    14    16   am
     4     9    10   ar
     5    10     5    1
     6    11    12   ar
     7    13     8   ar
     8     1     5    1
     9     1     2    1
    10     2     3    1
    11     3     6    1
    12    22     6    1
    13    22    23    1
    14    24    25   ar
    15    26    27   ar
    16    27    29    1
    17    28    23   ar
    18     4     5   am
    19    15    14   am
    20    16     8    1
    21     6     4   am
    22    14    17    2
    23     8     9   ar
    24    10    11   ar
    25    12    13   ar
    26    23    24   ar
    27    25    26   ar
    28    27    28   ar
    29     4     7    2
    30    15    18    1
    31    16    19    1
@<TRIPOS>MOLECULE
MolPort-006-580-041 ChemDiv-V020-6525 MCULE-7808711997 PubChem-46041007 ZINC000037544204 ZINC37544204
 29 31 0 0 0
SMALL
GASTEIGER

@<TRIPOS>ATOM
      1 C          10.6886   39.5496    8.3163 C.3     1  UNL1        0.1015
      2 C          10.5679   39.6841    6.8074 C.3     1  UNL1        0.0435
      3 C          11.7918   40.4048    6.2496 C.3     1  UNL1        0.0971
      4 C          11.5536   41.8778    8.3007 C.2     1  UNL1        0.3112
      5 N          10.7296   40.8750    8.9317 N.am    1  UNL1       -0.2430
      6 N          12.1073   41.6253    6.9947 N.am    1  UNL1       -0.2596
      7 O          11.8048   42.9656    8.8880 O.2     1  UNL1       -0.2520
      8 C           7.9865   41.7565   11.3587 C.ar    1  UNL1        0.0528
      9 C           8.6855   41.5556   10.1643 C.ar    1  UNL1        0.0297
     10 C          10.0152   41.1018   10.1673 C.ar    1  UNL1        0.0565
     11 C          10.6317   40.8359   11.4014 C.ar    1  UNL1        0.0150
     12 C           9.9421   41.0325   12.5997 C.ar    1  UNL1        0.0026
     13 C           8.6244   41.4925   12.5786 C.ar    1  UNL1        0.0148
     14 C           5.7199   42.0702   10.2009 C.2     1  UNL1        0.3045
     15 N           4.4032   42.6085   10.3168 N.am    1  UNL1       -0.2887
     16 N           6.6331   42.2269   11.2945 N.am    1  UNL1       -0.2683
     17 O           6.0657   41.4675    9.1486 O.2     1  UNL1       -0.2525
     18 H           4.1500   43.0756   11.1456 H       1  UNL1        0.1510
     19 H           6.2958   42.7078   12.0846 H       1  UNL1        0.1564
     20 C           2.6718   41.1836    9.3996 C.3     1  UNL1        0.0230
     21 C           3.4247   42.4883    9.2491 C.3     1  UNL1        0.0910
     22 C          13.0246   42.5732    6.3725 C.3     1  UNL1        0.1217
     23 C          14.3568   42.5382    7.0453 C.ar    1  UNL1       -0.0001
     24 C          14.6708   41.4922    7.9195 C.ar    1  UNL1       -0.0025
     25 C          15.9212   41.4525    8.5441 C.ar    1  UNL1        0.0020
     26 C          16.8595   42.4589    8.2946 C.ar    1  UNL1        0.0296
     27 C          16.5476   43.5048    7.4207 C.ar    1  UNL1        0.1399
     28 C          15.2975   43.5447    6.7960 C.ar    1  UNL1        0.0270
     29 F          17.4568   44.4791    7.1786 F       1  UNL1       -0.2042
@<TRIPOS>BOND
     1    20    21    1
     2    21    15    1
     3    14    16   am
     4     9    10   ar
     5    10     5    1
     6    11    12   ar
     7    13     8   ar
     8     1     5    1
     9     1     2    1
    10     2     3    1
    11     3     6    1
    12    22     6    1
    13    22    23    1
    14    24    25   ar
    15    26    27   ar
    16    27    29    1
    17    28    23   ar
    18     4     5   am
    19    15    14   am
    20    16     8    1
    21     6     4   am
    22    14    17    2
    23     8     9   ar
    24    10    11   ar
    25    12    13   ar
    26    23    24   ar
    27    25    26   ar
    28    27    28   ar
    29     4     7    2
    30    15    18    1
    31    16    19    1
@<TRIPOS>MOLECULE
MolPort-006-580-041 ChemDiv-V020-6525 MCULE-7808711997 PubChem-46041007 ZINC000037544204 ZINC37544204
 29 31 0 0 0
SMALL
GASTEIGER

@<TRIPOS>ATOM
      1 C          12.4210   41.5101    7.7401 C.3     1  UNL1        0.1015
      2 C          13.9336   41.5633    7.8772 C.3     1  UNL1        0.0435
      3 C          14.4336   40.3223    8.6110 C.3     1  UNL1        0.0971
      4 C          12.3925   40.6680   10.0766 C.2     1  UNL1        0.3112
      5 N          11.8017   41.5100    9.0644 N.am    1  UNL1       -0.2430
      6 N          13.6724   40.0530    9.8326 N.am    1  UNL1       -0.2596
      7 O          11.7921   40.4543   11.1653 O.2     1  UNL1       -0.2520
      8 C           8.1751   42.5283    9.1208 C.ar    1  UNL1        0.0528
      9 C           9.3414   41.7910    8.8936 C.ar    1  UNL1        0.0297
     10 C          10.5994   42.2822    9.2812 C.ar    1  UNL1        0.0565
     11 C          10.6652   43.5313    9.9208 C.ar    1  UNL1        0.0150
     12 C           9.5062   44.2750   10.1531 C.ar    1  UNL1        0.0026
     13 C           8.2655   43.7759    9.7532 C.ar    1  UNL1        0.0148
     14 C           5.8365   41.5631    9.5399 C.2     1  UNL1        0.3045
     15 N           4.6548   41.0365    8.9372 N.am    1  UNL1       -0.2887
     16 N           6.9193   41.9792    8.6981 N.am    1  UNL1       -0.2683
     17 O           5.9176   41.6570   10.7948 O.2     1  UNL1       -0.2525
     18 H           4.6084   40.9707    7.9560 H       1  UNL1        0.1510
     19 H           6.7872   41.8775    7.7278 H       1  UNL1        0.1564
     20 C           2.7422   41.8002   10.2132 C.3     1  UNL1        0.0230
     21 C           3.5180   40.5944    9.7272 C.3     1  UNL1        0.0910
     22 C          14.2502   39.1175   10.7909 C.3     1  UNL1        0.1217
     23 C          13.9247   37.7095   10.4164 C.ar    1  UNL1       -0.0001
     24 C          14.7879   36.9907    9.5826 C.ar    1  UNL1       -0.0025
     25 C          14.4897   35.6689    9.2377 C.ar    1  UNL1        0.0020
     26 C          13.3277   35.0639    9.7268 C.ar    1  UNL1        0.0296
     27 C          12.4641   35.7806   10.5608 C.ar    1  UNL1        0.1399
     28 C          12.7621   37.1022   10.9060 C.ar    1  UNL1        0.0270
     29 F          11.3390   35.1943   11.0351 F       1  UNL1       -0.2042
@<TRIPOS>BOND
     1    20    21    1
     2    21    15    1
     3    14    16   am
     4     9    10   ar
     5    10     5    1
     6    11    12   ar
     7    13     8   ar
     8     1     5    1
     9     1     2    1
    10     2     3    1
    11     3     6    1
    12    22     6    1
    13    22    23    1
    14    24    25   ar
    15    26    27   ar
    16    27    29    1
    17    28    23   ar
    18     4     5   am
    19    15    14   am
    20    16     8    1
    21     6     4   am
    22    14    17    2
    23     8     9   ar
    24    10    11   ar
    25    12    13   ar
    26    23    24   ar
    27    25    26   ar
    28    27    28   ar
    29     4     7    2
    30    15    18    1
    31    16    19    1
