@<TRIPOS>MOLECULE
MolPort-007-723-520 20486745 ChemDiv-E157-6096 PubChem-46271961 ZINC000020486745 ZINC20486745
 29 31 0 0 0
SMALL
GASTEIGER

@<TRIPOS>ATOM
      1 C          12.4366   42.6298    8.0409 C.ar    1  UNL1        0.2593
      2 C          10.1717   42.5682    8.7931 C.ar    1  UNL1        0.1896
      3 N          12.2289   43.3701    9.1513 N.ar    1  UNL1       -0.1187
      4 N          10.9657   43.3371    9.5713 N.ar    1  UNL1       -0.1239
      5 S          11.0234   41.8776    7.5171 S.2     1  UNL1       -0.0102
      6 C           8.0248   41.2345    8.5569 C.2     1  UNL1        0.2511
      7 N           8.7749   42.3604    9.0233 N.am    1  UNL1       -0.2592
      8 O           8.5805   40.3217    7.8864 O.2     1  UNL1       -0.2698
      9 H           8.2930   43.0444    9.5422 H       1  UNL1        0.1571
     10 C           6.5952   41.1588    8.8718 C.2     1  UNL1        0.0581
     11 C           6.0705   41.7899    9.9199 C.2     1  UNL1        0.0047
     12 C           4.6405   41.7256   10.2512 C.ar    1  UNL1        0.0001
     13 C           3.6784   41.3414    9.3029 C.ar    1  UNL1        0.0000
     14 C           2.3258   41.2910    9.6529 C.ar    1  UNL1        0.0000
     15 C           1.9272   41.6238   10.9505 C.ar    1  UNL1        0.0000
     16 C           2.8808   42.0069   11.8980 C.ar    1  UNL1        0.0000
     17 C           4.2336   42.0571   11.5483 C.ar    1  UNL1        0.0000
     18 S          13.9974   42.4617    7.2637 S.O2    1  UNL1        0.1010
     19 O          13.8407   41.6079    6.0363 O.2     1  UNL1       -0.1477
     20 O          14.5149   43.8125    6.8558 O.2     1  UNL1       -0.1477
     21 C          16.5063   42.1829    8.3336 C.3     1  UNL1        0.1392
     22 N          15.1237   41.7256    8.3650 N.pl3   1  UNL1       -0.1870
     23 C          14.7201   40.6779    9.2698 C.ar    1  UNL1        0.0686
     24 C          15.6659   39.7733    9.7819 C.ar    1  UNL1        0.0119
     25 C          15.2772   38.7545   10.6562 C.ar    1  UNL1       -0.0206
     26 C          16.2898   37.8060   11.1881 C.3     1  UNL1        0.0311
     27 C          13.9373   38.6276   11.0294 C.ar    1  UNL1       -0.0042
     28 C          12.9865   39.5197   10.5289 C.ar    1  UNL1        0.0010
     29 C          13.3763   40.5382    9.6550 C.ar    1  UNL1        0.0161
@<TRIPOS>BOND
     1    21    22    1
     2    24    25   ar
     3    26    25    1
     4    27    28   ar
     5    29    23   ar
     6     1     5   ar
     7     2     7    1
     8     2     5   ar
     9     6    10    1
    10    11    12    1
    11    13    14   ar
    12    15    16   ar
    13    17    12   ar
    14    22    23    1
    15     3     4   ar
    16     7     6   am
    17    18    22    1
    18    18     1    1
    19    23    24   ar
    20    25    27   ar
    21    28    29   ar
    22     1     3   ar
    23     2     4   ar
    24     6     8    2
    25    10    11    2
    26    12    13   ar
    27    14    15   ar
    28    16    17   ar
    29    18    19    2
    30    18    20    2
    31     7     9    1
@<TRIPOS>MOLECULE
MolPort-007-723-520 20486745 ChemDiv-E157-6096 PubChem-46271961 ZINC000020486745 ZINC20486745
 29 31 0 0 0
SMALL
GASTEIGER

@<TRIPOS>ATOM
      1 C          13.4571   39.9895   10.0112 C.ar    1  UNL1        0.2593
      2 C          11.5288   41.2441    9.3730 C.ar    1  UNL1        0.1896
      3 N          13.6721   40.7770    8.9352 N.ar    1  UNL1       -0.1187
      4 N          12.5969   41.4767    8.5779 N.ar    1  UNL1       -0.1239
      5 S          11.8801   40.1319   10.5856 S.2     1  UNL1       -0.0102
      6 C           9.9068   43.1705    9.6914 C.2     1  UNL1        0.2511
      7 N          10.2515   41.8677    9.2100 N.am    1  UNL1       -0.2592
      8 O          10.7498   43.8723   10.3145 O.2     1  UNL1       -0.2698
      9 H           9.5565   41.3619    8.7300 H       1  UNL1        0.1571
     10 C           8.5533   43.6782    9.4480 C.2     1  UNL1        0.0581
     11 C           7.5547   42.8758    9.0856 C.2     1  UNL1        0.0047
     12 C           6.1922   43.3664    8.8373 C.ar    1  UNL1        0.0001
     13 C           5.0732   42.7870    9.4575 C.ar    1  UNL1        0.0000
     14 C           3.7908   43.2795    9.1981 C.ar    1  UNL1        0.0000
     15 C           3.6192   44.3523    8.3189 C.ar    1  UNL1        0.0000
     16 C           4.7295   44.9324    7.6990 C.ar    1  UNL1        0.0000
     17 C           6.0123   44.4402    7.9583 C.ar    1  UNL1        0.0000
     18 S          14.6858   38.9668   10.7272 S.O2    1  UNL1        0.1010
     19 O          16.0393   39.5448   10.4211 O.2     1  UNL1       -0.1477
     20 O          14.5035   38.9138   12.2181 O.2     1  UNL1       -0.1477
     21 C          13.3566   36.5949   10.3741 C.3     1  UNL1        0.1392
     22 N          14.5608   37.3588   10.0776 N.pl3   1  UNL1       -0.1870
     23 C          15.6191   36.7789    9.2882 C.ar    1  UNL1        0.0686
     24 C          15.3478   36.2318    8.0224 C.ar    1  UNL1        0.0119
     25 C          16.3706   35.6657    7.2564 C.ar    1  UNL1       -0.0206
     26 C          16.0666   35.0911    5.9203 C.3     1  UNL1        0.0311
     27 C          17.6780   35.6397    7.7469 C.ar    1  UNL1       -0.0042
     28 C          17.9626   36.1802    9.0028 C.ar    1  UNL1        0.0010
     29 C          16.9392   36.7462    9.7678 C.ar    1  UNL1        0.0161
@<TRIPOS>BOND
     1    21    22    1
     2    24    25   ar
     3    26    25    1
     4    27    28   ar
     5    29    23   ar
     6     1     5   ar
     7     2     7    1
     8     2     5   ar
     9     6    10    1
    10    11    12    1
    11    13    14   ar
    12    15    16   ar
    13    17    12   ar
    14    22    23    1
    15     3     4   ar
    16     7     6   am
    17    18    22    1
    18    18     1    1
    19    23    24   ar
    20    25    27   ar
    21    28    29   ar
    22     1     3   ar
    23     2     4   ar
    24     6     8    2
    25    10    11    2
    26    12    13   ar
    27    14    15   ar
    28    16    17   ar
    29    18    19    2
    30    18    20    2
    31     7     9    1
@<TRIPOS>MOLECULE
MolPort-007-723-520 20486745 ChemDiv-E157-6096 PubChem-46271961 ZINC000020486745 ZINC20486745
 29 31 0 0 0
SMALL
GASTEIGER

@<TRIPOS>ATOM
      1 C          11.8088   41.5540    8.1871 C.ar    1  UNL1        0.2593
      2 C           9.6642   42.0778    9.0958 C.ar    1  UNL1        0.1896
      3 N          11.8307   42.6272    9.0069 N.ar    1  UNL1       -0.1187
      4 N          10.6348   42.9207    9.5137 N.ar    1  UNL1       -0.1239
      5 S          10.2620   40.9010    8.0526 S.2     1  UNL1       -0.0102
      6 C           7.3098   42.9974    8.8628 C.2     1  UNL1        0.2511
      7 N           8.2923   42.1685    9.4917 N.am    1  UNL1       -0.2592
      8 O           7.6143   43.7267    7.8795 O.2     1  UNL1       -0.2698
      9 H           8.0021   41.6187   10.2550 H       1  UNL1        0.1571
     10 C           5.9387   42.9852    9.3815 C.2     1  UNL1        0.0581
     11 C           5.4362   41.9299   10.0186 C.2     1  UNL1        0.0047
     12 C           4.0648   41.8994   10.5452 C.ar    1  UNL1        0.0001
     13 C           3.7790   42.2194   11.8825 C.ar    1  UNL1        0.0000
     14 C           2.4620   42.1800   12.3498 C.ar    1  UNL1        0.0000
     15 C           1.4244   41.8212   11.4850 C.ar    1  UNL1        0.0000
     16 C           1.7035   41.5017   10.1532 C.ar    1  UNL1        0.0000
     17 C           3.0206   41.5411    9.6854 C.ar    1  UNL1        0.0000
     18 S          13.2294   40.9147    7.3861 S.O2    1  UNL1        0.1010
     19 O          13.0381   39.4412    7.1581 O.2     1  UNL1       -0.1477
     20 O          13.4182   41.5935    6.0585 O.2     1  UNL1       -0.1477
     21 C          14.7819   40.3938    9.5851 C.3     1  UNL1        0.1392
     22 N          14.6330   41.1902    8.3747 N.pl3   1  UNL1       -0.1870
     23 C          15.6145   42.1891    8.0309 C.ar    1  UNL1        0.0686
     24 C          15.2905   43.2345    7.1493 C.ar    1  UNL1        0.0119
     25 C          16.2407   44.2022    6.8112 C.ar    1  UNL1       -0.0206
     26 C          15.8819   45.3007    5.8772 C.3     1  UNL1        0.0311
     27 C          17.5272   44.1363    7.3508 C.ar    1  UNL1       -0.0042
     28 C          17.8632   43.1034    8.2287 C.ar    1  UNL1        0.0010
     29 C          16.9123   42.1366    8.5663 C.ar    1  UNL1        0.0161
@<TRIPOS>BOND
     1    21    22    1
     2    24    25   ar
     3    26    25    1
     4    27    28   ar
     5    29    23   ar
     6     1     5   ar
     7     2     7    1
     8     2     5   ar
     9     6    10    1
    10    11    12    1
    11    13    14   ar
    12    15    16   ar
    13    17    12   ar
    14    22    23    1
    15     3     4   ar
    16     7     6   am
    17    18    22    1
    18    18     1    1
    19    23    24   ar
    20    25    27   ar
    21    28    29   ar
    22     1     3   ar
    23     2     4   ar
    24     6     8    2
    25    10    11    2
    26    12    13   ar
    27    14    15   ar
    28    16    17   ar
    29    18    19    2
    30    18    20    2
    31     7     9    1
@<TRIPOS>MOLECULE
MolPort-007-723-520 20486745 ChemDiv-E157-6096 PubChem-46271961 ZINC000020486745 ZINC20486745
 29 31 0 0 0
SMALL
GASTEIGER

@<TRIPOS>ATOM
      1 C          14.1345   40.4751    9.3698 C.ar    1  UNL1        0.2593
      2 C          12.2429   41.8264    8.8263 C.ar    1  UNL1        0.1896
      3 N          14.3288   41.2383    8.2725 N.ar    1  UNL1       -0.1187
      4 N          13.2740   41.9918    7.9680 N.ar    1  UNL1       -0.1239
      5 S          12.6035   40.7096   10.0318 S.2     1  UNL1       -0.0102
      6 C           9.7617   41.9283    8.3003 C.2     1  UNL1        0.2511
      7 N          10.9937   42.5171    8.7284 N.am    1  UNL1       -0.2592
      8 O           9.7079   40.7117    7.9708 O.2     1  UNL1       -0.2698
      9 H          10.9808   43.4703    8.9743 H       1  UNL1        0.1571
     10 C           8.5588   42.7647    8.2505 C.2     1  UNL1        0.0581
     11 C           7.3371   42.2489    8.3662 C.2     1  UNL1        0.0047
     12 C           6.1204   43.0712    8.3187 C.ar    1  UNL1        0.0001
     13 C           6.0348   44.2193    7.5144 C.ar    1  UNL1        0.0000
     14 C           4.8611   44.9784    7.4935 C.ar    1  UNL1        0.0000
     15 C           3.7675   44.5954    8.2750 C.ar    1  UNL1        0.0000
     16 C           3.8475   43.4536    9.0773 C.ar    1  UNL1        0.0000
     17 C           5.0212   42.6940    9.0982 C.ar    1  UNL1        0.0000
     18 S          15.3458   39.3945   10.0280 S.O2    1  UNL1        0.1010
     19 O          16.6625   39.6735    9.3586 O.2     1  UNL1       -0.1477
     20 O          15.4907   39.6265   11.5059 O.2     1  UNL1       -0.1477
     21 C          15.9120   36.7828    9.4146 C.3     1  UNL1        0.1392
     22 N          14.8713   37.7447    9.7513 N.pl3   1  UNL1       -0.1870
     23 C          13.4913   37.3332    9.8265 C.ar    1  UNL1        0.0686
     24 C          13.0931   36.3322   10.7291 C.ar    1  UNL1        0.0119
     25 C          11.7570   35.9285   10.8018 C.ar    1  UNL1       -0.0206
     26 C          11.3528   34.8684   11.7612 C.3     1  UNL1        0.0311
     27 C          10.8022   36.5210    9.9724 C.ar    1  UNL1       -0.0042
     28 C          11.1832   37.5173    9.0711 C.ar    1  UNL1        0.0010
     29 C          12.5194   37.9205    8.9994 C.ar    1  UNL1        0.0161
@<TRIPOS>BOND
     1    21    22    1
     2    24    25   ar
     3    26    25    1
     4    27    28   ar
     5    29    23   ar
     6     1     5   ar
     7     2     7    1
     8     2     5   ar
     9     6    10    1
    10    11    12    1
    11    13    14   ar
    12    15    16   ar
    13    17    12   ar
    14    22    23    1
    15     3     4   ar
    16     7     6   am
    17    18    22    1
    18    18     1    1
    19    23    24   ar
    20    25    27   ar
    21    28    29   ar
    22     1     3   ar
    23     2     4   ar
    24     6     8    2
    25    10    11    2
    26    12    13   ar
    27    14    15   ar
    28    16    17   ar
    29    18    19    2
    30    18    20    2
    31     7     9    1
@<TRIPOS>MOLECULE
MolPort-007-723-520 20486745 ChemDiv-E157-6096 PubChem-46271961 ZINC000020486745 ZINC20486745
 29 31 0 0 0
SMALL
GASTEIGER

@<TRIPOS>ATOM
      1 C           6.3704   42.3640    8.0662 C.ar    1  UNL1        0.2593
      2 C           4.9278   42.6074    9.9528 C.ar    1  UNL1        0.1896
      3 N           5.6724   43.5202    8.0512 N.ar    1  UNL1       -0.1187
      4 N           4.8668   43.6566    9.1027 N.ar    1  UNL1       -0.1239
      5 S           6.0116   41.4342    9.4241 S.2     1  UNL1       -0.0102
      6 C           2.7935   42.1076   11.2326 C.2     1  UNL1        0.2511
      7 N           4.1669   42.5026   11.1599 N.am    1  UNL1       -0.2592
      8 O           2.1493   41.8167   10.1876 O.2     1  UNL1       -0.2698
      9 H           4.6231   42.7188   12.0051 H       1  UNL1        0.1571
     10 C           2.1447   42.0462   12.5457 C.2     1  UNL1        0.0581
     11 C           0.8888   42.4473   12.7302 C.2     1  UNL1        0.0047
     12 C           0.2222   42.3933   14.0385 C.ar    1  UNL1        0.0001
     13 C           0.7426   43.0573   15.1614 C.ar    1  UNL1        0.0000
     14 C           0.0818   42.9845   16.3912 C.ar    1  UNL1        0.0000
     15 C          -1.1011   42.2488   16.5061 C.ar    1  UNL1        0.0000
     16 C          -1.6230   41.5861   15.3916 C.ar    1  UNL1        0.0000
     17 C          -0.9625   41.6590   14.1614 C.ar    1  UNL1        0.0000
     18 S           7.5241   41.9100    6.8287 S.O2    1  UNL1        0.1010
     19 O           7.0361   40.6655    6.1412 O.2     1  UNL1       -0.1477
     20 O           7.6473   43.0119    5.8140 O.2     1  UNL1       -0.1477
     21 C           9.9659   42.7630    7.7383 C.3     1  UNL1        0.1392
     22 N           9.0781   41.6231    7.5539 N.pl3   1  UNL1       -0.1870
     23 C           9.4968   40.2993    7.9435 C.ar    1  UNL1        0.0686
     24 C          10.4832   40.1237    8.9290 C.ar    1  UNL1        0.0119
     25 C          10.8938   38.8421    9.3062 C.ar    1  UNL1       -0.0206
     26 C          11.9383   38.6740   10.3496 C.3     1  UNL1        0.0311
     27 C          10.3228   37.7197    8.7023 C.ar    1  UNL1       -0.0042
     28 C           9.3410   37.8789    7.7219 C.ar    1  UNL1        0.0010
     29 C           8.9310   39.1608    7.3457 C.ar    1  UNL1        0.0161
@<TRIPOS>BOND
     1    21    22    1
     2    24    25   ar
     3    26    25    1
     4    27    28   ar
     5    29    23   ar
     6     1     5   ar
     7     2     7    1
     8     2     5   ar
     9     6    10    1
    10    11    12    1
    11    13    14   ar
    12    15    16   ar
    13    17    12   ar
    14    22    23    1
    15     3     4   ar
    16     7     6   am
    17    18    22    1
    18    18     1    1
    19    23    24   ar
    20    25    27   ar
    21    28    29   ar
    22     1     3   ar
    23     2     4   ar
    24     6     8    2
    25    10    11    2
    26    12    13   ar
    27    14    15   ar
    28    16    17   ar
    29    18    19    2
    30    18    20    2
    31     7     9    1
@<TRIPOS>MOLECULE
MolPort-007-723-520 20486745 ChemDiv-E157-6096 PubChem-46271961 ZINC000020486745 ZINC20486745
 29 31 0 0 0
SMALL
GASTEIGER

@<TRIPOS>ATOM
      1 C           7.2478   41.5661    8.8051 C.ar    1  UNL1        0.2593
      2 C           5.3898   41.3395   10.2869 C.ar    1  UNL1        0.1896
      3 N           6.1343   41.1123    8.1899 N.ar    1  UNL1       -0.1187
      4 N           5.0976   40.9848    9.0157 N.ar    1  UNL1       -0.1239
      5 S           6.9881   41.8400   10.4467 S.2     1  UNL1       -0.0102
      6 C           3.1594   41.9048   11.3590 C.2     1  UNL1        0.2511
      7 N           4.4559   41.2991   11.3701 N.am    1  UNL1       -0.2592
      8 O           2.7508   42.5365   10.3463 O.2     1  UNL1       -0.2698
      9 H           4.7258   40.8179   12.1854 H       1  UNL1        0.1571
     10 C           2.3108   41.7790   12.5476 C.2     1  UNL1        0.0581
     11 C           1.2220   42.5258   12.7179 C.2     1  UNL1        0.0047
     12 C           0.3597   42.4139   13.9022 C.ar    1  UNL1        0.0001
     13 C           0.7268   42.9686   15.1392 C.ar    1  UNL1        0.0000
     14 C          -0.1185   42.8431   16.2456 C.ar    1  UNL1        0.0000
     15 C          -1.3337   42.1637   16.1228 C.ar    1  UNL1        0.0000
     16 C          -1.7036   41.6097   14.8940 C.ar    1  UNL1        0.0000
     17 C          -0.8586   41.7352   13.7872 C.ar    1  UNL1        0.0000
     18 S           8.7653   41.8536    7.9786 S.O2    1  UNL1        0.1010
     19 O           8.4789   42.2267    6.5508 O.2     1  UNL1       -0.1477
     20 O           9.5028   42.9839    8.6399 O.2     1  UNL1       -0.1477
     21 C           9.1062   39.1435    7.7411 C.3     1  UNL1        0.1392
     22 N           9.7452   40.4185    8.0372 N.pl3   1  UNL1       -0.1870
     23 C          11.1424   40.4721    8.3896 C.ar    1  UNL1        0.0686
     24 C          11.5802   40.0152    9.6445 C.ar    1  UNL1        0.0119
     25 C          12.9333   40.0692    9.9905 C.ar    1  UNL1       -0.0206
     26 C          13.3793   39.5824   11.3216 C.3     1  UNL1        0.0311
     27 C          13.8657   40.5810    9.0855 C.ar    1  UNL1       -0.0042
     28 C          13.4453   41.0382    7.8346 C.ar    1  UNL1        0.0010
     29 C          12.0922   40.9834    7.4896 C.ar    1  UNL1        0.0161
@<TRIPOS>BOND
     1    21    22    1
     2    24    25   ar
     3    26    25    1
     4    27    28   ar
     5    29    23   ar
     6     1     5   ar
     7     2     7    1
     8     2     5   ar
     9     6    10    1
    10    11    12    1
    11    13    14   ar
    12    15    16   ar
    13    17    12   ar
    14    22    23    1
    15     3     4   ar
    16     7     6   am
    17    18    22    1
    18    18     1    1
    19    23    24   ar
    20    25    27   ar
    21    28    29   ar
    22     1     3   ar
    23     2     4   ar
    24     6     8    2
    25    10    11    2
    26    12    13   ar
    27    14    15   ar
    28    16    17   ar
    29    18    19    2
    30    18    20    2
    31     7     9    1
@<TRIPOS>MOLECULE
MolPort-007-723-520 20486745 ChemDiv-E157-6096 PubChem-46271961 ZINC000020486745 ZINC20486745
 29 31 0 0 0
SMALL
GASTEIGER

@<TRIPOS>ATOM
      1 C          14.5221   39.7592   10.3259 C.ar    1  UNL1        0.2593
      2 C          12.3771   40.7643   10.0290 C.ar    1  UNL1        0.1896
      3 N          14.3967   40.3952    9.1410 N.ar    1  UNL1       -0.1187
      4 N          13.2003   40.9555    8.9740 N.ar    1  UNL1       -0.1239
      5 S          13.1161   39.8689   11.2467 S.2     1  UNL1       -0.0102
      6 C           9.9382   40.7880    9.3259 C.2     1  UNL1        0.2511
      7 N          11.0385   41.2632   10.1078 N.am    1  UNL1       -0.2592
      8 O          10.0964   39.8603    8.4858 O.2     1  UNL1       -0.2698
      9 H          10.8607   41.9888   10.7490 H       1  UNL1        0.1571
     10 C           8.6195   41.3989    9.5176 C.2     1  UNL1        0.0581
     11 C           7.6754   41.3450    8.5806 C.2     1  UNL1        0.0047
     12 C           6.3484   41.9513    8.7548 C.ar    1  UNL1        0.0001
     13 C           6.1257   43.3199    8.5315 C.ar    1  UNL1        0.0000
     14 C           4.8496   43.8633    8.7068 C.ar    1  UNL1        0.0000
     15 C           3.7901   43.0436    9.1056 C.ar    1  UNL1        0.0000
     16 C           4.0065   41.6810    9.3293 C.ar    1  UNL1        0.0000
     17 C           5.2826   41.1371    9.1538 C.ar    1  UNL1        0.0000
     18 S          15.9845   38.9436   10.8402 S.O2    1  UNL1        0.1010
     19 O          17.1467   39.8844   10.6859 O.2     1  UNL1       -0.1477
     20 O          15.8678   38.5446   12.2845 O.2     1  UNL1       -0.1477
     21 C          17.4778   37.4151    9.1222 C.3     1  UNL1        0.1392
     22 N          16.2333   37.5211    9.8716 N.pl3   1  UNL1       -0.1870
     23 C          15.2368   36.4824    9.7855 C.ar    1  UNL1        0.0686
     24 C          15.4939   35.3045    9.0633 C.ar    1  UNL1        0.0119
     25 C          14.5288   34.2975    8.9750 C.ar    1  UNL1       -0.0206
     26 C          14.8166   33.0585    8.2070 C.3     1  UNL1        0.0311
     27 C          13.2940   34.4560    9.6080 C.ar    1  UNL1       -0.0042
     28 C          13.0246   35.6209   10.3296 C.ar    1  UNL1        0.0010
     29 C          13.9905   36.6270   10.4176 C.ar    1  UNL1        0.0161
@<TRIPOS>BOND
     1    21    22    1
     2    24    25   ar
     3    26    25    1
     4    27    28   ar
     5    29    23   ar
     6     1     5   ar
     7     2     7    1
     8     2     5   ar
     9     6    10    1
    10    11    12    1
    11    13    14   ar
    12    15    16   ar
    13    17    12   ar
    14    22    23    1
    15     3     4   ar
    16     7     6   am
    17    18    22    1
    18    18     1    1
    19    23    24   ar
    20    25    27   ar
    21    28    29   ar
    22     1     3   ar
    23     2     4   ar
    24     6     8    2
    25    10    11    2
    26    12    13   ar
    27    14    15   ar
    28    16    17   ar
    29    18    19    2
    30    18    20    2
    31     7     9    1
@<TRIPOS>MOLECULE
MolPort-007-723-520 20486745 ChemDiv-E157-6096 PubChem-46271961 ZINC000020486745 ZINC20486745
 29 31 0 0 0
SMALL
GASTEIGER

@<TRIPOS>ATOM
      1 C          14.9977   39.3774    9.3948 C.ar    1  UNL1        0.2593
      2 C          12.8299   40.0459    8.6511 C.ar    1  UNL1        0.1896
      3 N          14.1259   38.3487    9.3169 N.ar    1  UNL1       -0.1187
      4 N          12.9162   38.7206    8.9029 N.ar    1  UNL1       -0.1239
      5 S          14.2878   40.8349    8.9381 S.2     1  UNL1       -0.0102
      6 C          10.7854   41.5077    9.0070 C.2     1  UNL1        0.2511
      7 N          11.6449   40.7038    8.1928 N.am    1  UNL1       -0.2592
      8 O          11.0379   41.6882   10.2298 O.2     1  UNL1       -0.2698
      9 H          11.4023   40.5953    7.2448 H       1  UNL1        0.1571
     10 C           9.6026   42.1203    8.3950 C.2     1  UNL1        0.0581
     11 C           8.6405   42.6785    9.1263 C.2     1  UNL1        0.0047
     12 C           7.4481   43.2969    8.5308 C.ar    1  UNL1        0.0001
     13 C           6.6110   42.5920    7.6505 C.ar    1  UNL1        0.0000
     14 C           5.4843   43.2120    7.1023 C.ar    1  UNL1        0.0000
     15 C           5.1878   44.5379    7.4299 C.ar    1  UNL1        0.0000
     16 C           6.0177   45.2439    8.3054 C.ar    1  UNL1        0.0000
     17 C           7.1446   44.6241    8.8540 C.ar    1  UNL1        0.0000
     18 S          16.6686   39.1990    9.8894 S.O2    1  UNL1        0.1010
     19 O          17.5532   39.8398    8.8567 O.2     1  UNL1       -0.1477
     20 O          16.8875   39.8810   11.2107 O.2     1  UNL1       -0.1477
     21 C          17.3882   37.0069   11.3709 C.3     1  UNL1        0.1392
     22 N          17.0562   37.5111   10.0453 N.pl3   1  UNL1       -0.1870
     23 C          17.0750   36.6320    8.9024 C.ar    1  UNL1        0.0686
     24 C          18.2094   35.8518    8.6205 C.ar    1  UNL1        0.0119
     25 C          18.2322   35.0015    7.5115 C.ar    1  UNL1       -0.0206
     26 C          19.4398   34.1837    7.2274 C.3     1  UNL1        0.0311
     27 C          17.1202   34.9209    6.6702 C.ar    1  UNL1       -0.0042
     28 C          15.9857   35.6900    6.9382 C.ar    1  UNL1        0.0010
     29 C          15.9640   36.5396    8.0476 C.ar    1  UNL1        0.0161
@<TRIPOS>BOND
     1    21    22    1
     2    24    25   ar
     3    26    25    1
     4    27    28   ar
     5    29    23   ar
     6     1     5   ar
     7     2     7    1
     8     2     5   ar
     9     6    10    1
    10    11    12    1
    11    13    14   ar
    12    15    16   ar
    13    17    12   ar
    14    22    23    1
    15     3     4   ar
    16     7     6   am
    17    18    22    1
    18    18     1    1
    19    23    24   ar
    20    25    27   ar
    21    28    29   ar
    22     1     3   ar
    23     2     4   ar
    24     6     8    2
    25    10    11    2
    26    12    13   ar
    27    14    15   ar
    28    16    17   ar
    29    18    19    2
    30    18    20    2
    31     7     9    1
@<TRIPOS>MOLECULE
MolPort-007-723-520 20486745 ChemDiv-E157-6096 PubChem-46271961 ZINC000020486745 ZINC20486745
 29 31 0 0 0
SMALL
GASTEIGER

@<TRIPOS>ATOM
      1 C          13.4727   38.7992   10.1490 C.ar    1  UNL1        0.2593
      2 C          11.2466   39.4369    9.5684 C.ar    1  UNL1        0.1896
      3 N          13.0394   38.2229    9.0068 N.ar    1  UNL1       -0.1187
      4 N          11.7975   38.5774    8.6826 N.ar    1  UNL1       -0.1239
      5 S          12.3028   39.8047   10.8253 S.2     1  UNL1       -0.0102
      6 C           9.6109   41.3689    9.3798 C.2     1  UNL1        0.2511
      7 N           9.9257   39.9749    9.4550 N.am    1  UNL1       -0.2592
      8 O          10.5236   42.2393    9.4108 O.2     1  UNL1       -0.2698
      9 H           9.1760   39.3374    9.4265 H       1  UNL1        0.1571
     10 C           8.2057   41.7706    9.2659 C.2     1  UNL1        0.0581
     11 C           7.8503   42.9629    8.7925 C.2     1  UNL1        0.0047
     12 C           6.4475   43.3829    8.6711 C.ar    1  UNL1        0.0001
     13 C           6.0598   44.4272    7.8157 C.ar    1  UNL1        0.0000
     14 C           4.7156   44.8006    7.7249 C.ar    1  UNL1        0.0000
     15 C           3.7524   44.1337    8.4872 C.ar    1  UNL1        0.0000
     16 C           4.1331   43.0939    9.3400 C.ar    1  UNL1        0.0000
     17 C           5.4773   42.7200    9.4309 C.ar    1  UNL1        0.0000
     18 S          15.0696   38.5418   10.8214 S.O2    1  UNL1        0.1010
     19 O          15.0178   38.7818   12.3045 O.2     1  UNL1       -0.1477
     20 O          15.5090   37.1266   10.5710 O.2     1  UNL1       -0.1477
     21 C          17.6013   39.5323   10.4656 C.3     1  UNL1        0.1392
     22 N          16.2010   39.6327   10.0776 N.pl3   1  UNL1       -0.1870
     23 C          15.7759   40.6261    9.1227 C.ar    1  UNL1        0.0686
     24 C          14.5033   40.5492    8.5313 C.ar    1  UNL1        0.0119
     25 C          14.0897   41.5084    7.6026 C.ar    1  UNL1       -0.0206
     26 C          12.7411   41.4121    6.9863 C.3     1  UNL1        0.0311
     27 C          14.9440   42.5567    7.2537 C.ar    1  UNL1       -0.0042
     28 C          16.2112   42.6462    7.8337 C.ar    1  UNL1        0.0010
     29 C          16.6237   41.6868    8.7624 C.ar    1  UNL1        0.0161
@<TRIPOS>BOND
     1    21    22    1
     2    24    25   ar
     3    26    25    1
     4    27    28   ar
     5    29    23   ar
     6     1     5   ar
     7     2     7    1
     8     2     5   ar
     9     6    10    1
    10    11    12    1
    11    13    14   ar
    12    15    16   ar
    13    17    12   ar
    14    22    23    1
    15     3     4   ar
    16     7     6   am
    17    18    22    1
    18    18     1    1
    19    23    24   ar
    20    25    27   ar
    21    28    29   ar
    22     1     3   ar
    23     2     4   ar
    24     6     8    2
    25    10    11    2
    26    12    13   ar
    27    14    15   ar
    28    16    17   ar
    29    18    19    2
    30    18    20    2
    31     7     9    1
@<TRIPOS>MOLECULE
MolPort-007-723-520 20486745 ChemDiv-E157-6096 PubChem-46271961 ZINC000020486745 ZINC20486745
 29 31 0 0 0
SMALL
GASTEIGER

@<TRIPOS>ATOM
      1 C           6.5131   41.7404   11.1162 C.ar    1  UNL1        0.2593
      2 C           8.8984   41.6580   11.1673 C.ar    1  UNL1        0.1896
      3 N           7.0908   42.7224   10.3908 N.ar    1  UNL1       -0.1187
      4 N           8.4213   42.6779   10.4193 N.ar    1  UNL1       -0.1239
      5 S           7.6590   40.7431   11.8435 S.2     1  UNL1       -0.0102
      6 C          11.0627   40.4701   10.5773 C.2     1  UNL1        0.2511
      7 N          10.2889   41.3829   11.3621 N.am    1  UNL1       -0.2592
      8 O          10.5362   39.8289    9.6270 O.2     1  UNL1       -0.2698
      9 H          10.7485   41.8578   12.0918 H       1  UNL1        0.1571
     10 C          12.4822   40.2915   10.8967 C.2     1  UNL1        0.0581
     11 C          13.3096   39.6364   10.0853 C.2     1  UNL1        0.0047
     12 C          14.7348   39.4474   10.3886 C.ar    1  UNL1        0.0001
     13 C          15.7289   40.2423    9.7948 C.ar    1  UNL1        0.0000
     14 C          17.0758   40.0348   10.1067 C.ar    1  UNL1        0.0000
     15 C          17.4367   39.0334   11.0125 C.ar    1  UNL1        0.0000
     16 C          16.4513   38.2396   11.6061 C.ar    1  UNL1        0.0000
     17 C          15.1041   38.4470   11.2945 C.ar    1  UNL1        0.0000
     18 S           4.7800   41.5271   11.2553 S.O2    1  UNL1        0.1010
     19 O           4.4992   40.1392   11.7598 O.2     1  UNL1       -0.1477
     20 O           4.2176   42.5237   12.2296 O.2     1  UNL1       -0.1477
     21 C           2.8910   40.9264    9.3610 C.3     1  UNL1        0.1392
     22 N           4.0345   41.7617    9.7020 N.pl3   1  UNL1       -0.1870
     23 C           4.5371   42.7329    8.7622 C.ar    1  UNL1        0.0686
     24 C           5.6301   42.4255    7.9338 C.ar    1  UNL1        0.0119
     25 C           6.1219   43.3660    7.0244 C.ar    1  UNL1       -0.0206
     26 C           7.2786   43.0251    6.1562 C.3     1  UNL1        0.0311
     27 C           5.5267   44.6261    6.9321 C.ar    1  UNL1       -0.0042
     28 C           4.4396   44.9454    7.7486 C.ar    1  UNL1        0.0010
     29 C           3.9484   44.0042    8.6573 C.ar    1  UNL1        0.0161
@<TRIPOS>BOND
     1    21    22    1
     2    24    25   ar
     3    26    25    1
     4    27    28   ar
     5    29    23   ar
     6     1     5   ar
     7     2     7    1
     8     2     5   ar
     9     6    10    1
    10    11    12    1
    11    13    14   ar
    12    15    16   ar
    13    17    12   ar
    14    22    23    1
    15     3     4   ar
    16     7     6   am
    17    18    22    1
    18    18     1    1
    19    23    24   ar
    20    25    27   ar
    21    28    29   ar
    22     1     3   ar
    23     2     4   ar
    24     6     8    2
    25    10    11    2
    26    12    13   ar
    27    14    15   ar
    28    16    17   ar
    29    18    19    2
    30    18    20    2
    31     7     9    1
