@<TRIPOS>MOLECULE
MolPort-005-103-567 12481498 CSSS00159780969 MCULE-5989226260 PubChem-25313221 ZINC000012481498
 34 39 0 0 0
SMALL
GASTEIGER

@<TRIPOS>ATOM
      1 C          15.8296   38.7792   10.6459 C.ar    1  UNL1        0.1328
      2 C          17.0027   38.2128   11.1079 C.ar    1  UNL1        0.0565
      3 C          16.5611   37.1404   11.8759 C.ar    1  UNL1        0.1230
      4 N          15.2120   37.0922   11.8596 N.ar    1  UNL1       -0.1666
      5 N          14.7790   38.0870   11.1060 N.ar    1  UNL1       -0.2394
      6 C          13.3750   38.3985   10.8676 C.3     1  UNL1        0.1093
      7 C          13.1248   39.8878   11.0436 C.3     1  UNL1        0.0418
      8 C          11.6494   40.2023   10.7996 C.3     1  UNL1        0.0744
      9 C          11.5041   38.2966    9.2163 C.3     1  UNL1        0.0744
     10 C          12.9783   37.9816    9.4610 C.3     1  UNL1        0.0418
     11 N          11.1622   39.6980    9.5055 N.3     1  UNL1       -0.2691
     12 C          11.3847   40.6138    8.3776 C.3     1  UNL1        0.0945
     13 C          10.6694   40.2347    7.1124 C.2     1  UNL1       -0.0329
     14 C          11.1745   40.5787    5.8994 C.2     1  UNL1       -0.0333
     15 C          10.3288   40.2886    4.6501 C.3     1  UNL1        0.0254
     16 C           8.9421   39.6763    5.0406 C.3     1  UNL1        0.0049
     17 C           8.3561   40.4697    6.2214 C.3     1  UNL1        0.0038
     18 C           8.5458   41.9904    6.2147 C.3     1  UNL1        0.0003
     19 C           6.8829   40.1428    6.4374 C.3     1  UNL1        0.0003
     20 C           9.2594   39.6375    7.1503 C.3     1  UNL1        0.0193
     21 C           9.2934   38.5742    6.0447 C.3     1  UNL1        0.0044
     22 C          16.8014   40.7010    9.2774 C.2     1  UNL1        0.2506
     23 N          15.7105   39.9383    9.8112 N.am    1  UNL1       -0.2660
     24 O          17.9935   40.3650    9.5164 O.2     1  UNL1       -0.2698
     25 H          14.8002   40.2371    9.5845 H       1  UNL1        0.1566
     26 C          16.5271   41.8830    8.4421 C.ar    1  UNL1        0.0569
     27 C          17.4642   42.9434    8.3801 C.ar    1  UNL1        0.0078
     28 C          17.2166   44.0798    7.5894 C.ar    1  UNL1        0.0403
     29 C          16.0223   44.1173    6.8761 C.ar    1  UNL1        0.1764
     30 C          15.1196   43.1058    6.9284 C.ar    1  UNL1        0.1766
     31 C          14.2760   44.6961    5.5318 C.3     1  UNL1        0.4294
     32 C          15.3295   41.9661    7.6999 C.ar    1  UNL1        0.0447
     33 O          14.0386   43.4122    6.1263 O.3     1  UNL1       -0.4346
     34 O          15.5527   45.1101    6.0395 O.3     1  UNL1       -0.4346
@<TRIPOS>BOND
     1     1    23    1
     2     2     3   ar
     3     6     5    1
     4     6     7    1
     5     7     8    1
     6     8    11    1
     7     9    11    1
     8     9    10    1
     9    10     6    1
    10    12    11    1
    11    12    13    1
    12    15    14    1
    13    16    15    1
    14    16    17    1
    15    17    18    1
    16    17    19    1
    17    20    17    1
    18    20    21    1
    19    20    13    1
    20    21    16    1
    21    22    26    1
    22    26    27   ar
    23    28    29   ar
    24    29    34    1
    25    30    33    1
    26    30    32   ar
    27    31    33    1
    28    31    34    1
    29     5     4   ar
    30     5     1   ar
    31    23    22   am
    32     1     2   ar
    33     3     4   ar
    34    13    14    2
    35    22    24    2
    36    27    28   ar
    37    29    30   ar
    38    32    26   ar
    39    23    25    1
@<TRIPOS>MOLECULE
MolPort-005-103-567 12481498 CSSS00159780969 MCULE-5989226260 PubChem-25313221 ZINC000012481498
 34 39 0 0 0
SMALL
GASTEIGER

@<TRIPOS>ATOM
      1 C          15.6210   38.9238   10.4667 C.ar    1  UNL1        0.1328
      2 C          16.6947   38.3766   11.1437 C.ar    1  UNL1        0.0565
      3 C          16.1426   37.2703   11.7812 C.ar    1  UNL1        0.1230
      4 N          14.8269   37.1856   11.4906 N.ar    1  UNL1       -0.1666
      5 N          14.5225   38.1898   10.6881 N.ar    1  UNL1       -0.2394
      6 C          13.1861   38.4694   10.1774 C.3     1  UNL1        0.1093
      7 C          12.4993   39.5199   11.0356 C.3     1  UNL1        0.0418
      8 C          11.0970   39.7996   10.4968 C.3     1  UNL1        0.0744
      9 C          11.8661   39.2436    8.2037 C.3     1  UNL1        0.0744
     10 C          13.2674   38.9629    8.7423 C.3     1  UNL1        0.0418
     11 N          11.0914   40.1485    9.0669 N.3     1  UNL1       -0.2691
     12 C          11.3140   41.5751    8.7921 C.3     1  UNL1        0.0945
     13 C          10.0989   42.4422    8.9587 C.2     1  UNL1       -0.0329
     14 C          10.1690   43.6111    9.6467 C.2     1  UNL1       -0.0333
     15 C           8.8661   44.3830    9.9049 C.3     1  UNL1        0.0254
     16 C           7.6299   43.5989    9.3505 C.3     1  UNL1        0.0049
     17 C           7.7575   42.1163    9.7413 C.3     1  UNL1        0.0038
     18 C           8.3011   41.7980   11.1384 C.3     1  UNL1        0.0003
     19 C           6.4483   41.3667    9.5230 C.3     1  UNL1        0.0003
     20 C           8.7106   41.9454    8.5439 C.3     1  UNL1        0.0193
     21 C           8.0535   43.1915    7.9361 C.3     1  UNL1        0.0044
     22 C          16.8074   40.7893    9.1928 C.2     1  UNL1        0.2506
     23 N          15.6349   40.1033    9.6524 N.am    1  UNL1       -0.2660
     24 O          17.9562   40.3587    9.4862 O.2     1  UNL1       -0.2698
     25 H          14.7633   40.4749    9.3851 H       1  UNL1        0.1566
     26 C          16.6685   42.0035    8.3703 C.ar    1  UNL1        0.0569
     27 C          17.7533   42.9057    8.2446 C.ar    1  UNL1        0.0078
     28 C          17.6364   44.0704    7.4651 C.ar    1  UNL1        0.0403
     29 C          16.4202   44.2964    6.8275 C.ar    1  UNL1        0.1764
     30 C          15.3764   43.4372    6.9411 C.ar    1  UNL1        0.1766
     31 C          14.7047   45.1458    5.5918 C.3     1  UNL1        0.4294
     32 C          15.4544   42.2751    7.7038 C.ar    1  UNL1        0.0447
     33 O          14.3083   43.9116    6.2064 O.3     1  UNL1       -0.4346
     34 O          16.0593   45.3540    6.0168 O.3     1  UNL1       -0.4346
@<TRIPOS>BOND
     1     1    23    1
     2     2     3   ar
     3     6     5    1
     4     6     7    1
     5     7     8    1
     6     8    11    1
     7     9    11    1
     8     9    10    1
     9    10     6    1
    10    12    11    1
    11    12    13    1
    12    15    14    1
    13    16    15    1
    14    16    17    1
    15    17    18    1
    16    17    19    1
    17    20    17    1
    18    20    21    1
    19    20    13    1
    20    21    16    1
    21    22    26    1
    22    26    27   ar
    23    28    29   ar
    24    29    34    1
    25    30    33    1
    26    30    32   ar
    27    31    33    1
    28    31    34    1
    29     5     4   ar
    30     5     1   ar
    31    23    22   am
    32     1     2   ar
    33     3     4   ar
    34    13    14    2
    35    22    24    2
    36    27    28   ar
    37    29    30   ar
    38    32    26   ar
    39    23    25    1
@<TRIPOS>MOLECULE
MolPort-005-103-567 12481498 CSSS00159780969 MCULE-5989226260 PubChem-25313221 ZINC000012481498
 34 39 0 0 0
SMALL
GASTEIGER

@<TRIPOS>ATOM
      1 C          16.4191   38.7325   10.0600 C.ar    1  UNL1        0.1328
      2 C          17.6458   38.7664   10.6963 C.ar    1  UNL1        0.0565
      3 C          17.6740   37.5690   11.4038 C.ar    1  UNL1        0.1230
      4 N          16.5296   36.8854   11.1898 N.ar    1  UNL1       -0.1666
      5 N          15.7784   37.5973   10.3689 N.ar    1  UNL1       -0.2394
      6 C          14.4439   37.2164    9.9230 C.3     1  UNL1        0.1093
      7 C          13.5354   36.9711   11.1173 C.3     1  UNL1        0.0418
      8 C          12.1420   36.5648   10.6392 C.3     1  UNL1        0.0744
      9 C          12.4576   37.9070    8.5757 C.3     1  UNL1        0.0744
     10 C          13.8506   38.3122    9.0528 C.3     1  UNL1        0.0418
     11 N          11.5648   37.5189    9.6786 N.3     1  UNL1       -0.2691
     12 C          10.8546   38.6462   10.2992 C.3     1  UNL1        0.0945
     13 C          10.7374   39.8667    9.4316 C.2     1  UNL1       -0.0329
     14 C          11.3422   41.0304    9.7849 C.2     1  UNL1       -0.0333
     15 C          11.0699   42.2798    8.9335 C.3     1  UNL1        0.0254
     16 C          10.0397   41.9706    7.7962 C.3     1  UNL1        0.0049
     17 C           8.8786   41.1465    8.3791 C.3     1  UNL1        0.0038
     18 C           8.3818   41.5183    9.7804 C.3     1  UNL1        0.0003
     19 C           7.6958   41.0916    7.4192 C.3     1  UNL1        0.0003
     20 C           9.7736   39.9009    8.2416 C.3     1  UNL1        0.0193
     21 C          10.5571   40.6715    7.1710 C.3     1  UNL1        0.0044
     22 C          16.4471   41.0337    8.9583 C.2     1  UNL1        0.2506
     23 N          15.8722   39.7430    9.2032 N.am    1  UNL1       -0.2660
     24 O          17.5353   41.3629    9.5048 O.2     1  UNL1       -0.2698
     25 H          15.0280   39.5325    8.7424 H       1  UNL1        0.1566
     26 C          15.7631   41.9800    8.0600 C.ar    1  UNL1        0.0569
     27 C          14.4353   41.7261    7.6370 C.ar    1  UNL1        0.0078
     28 C          13.7689   42.6181    6.7778 C.ar    1  UNL1        0.0403
     29 C          14.4633   43.7512    6.3652 C.ar    1  UNL1        0.1764
     30 C          15.7347   44.0031    6.7663 C.ar    1  UNL1        0.1766
     31 C          15.1017   45.7157    5.4035 C.3     1  UNL1        0.4294
     32 C          16.4266   43.1436    7.6154 C.ar    1  UNL1        0.0447
     33 O          16.1673   45.1885    6.2065 O.3     1  UNL1       -0.4346
     34 O          14.0344   44.7653    5.5323 O.3     1  UNL1       -0.4346
@<TRIPOS>BOND
     1     1    23    1
     2     2     3   ar
     3     6     5    1
     4     6     7    1
     5     7     8    1
     6     8    11    1
     7     9    11    1
     8     9    10    1
     9    10     6    1
    10    12    11    1
    11    12    13    1
    12    15    14    1
    13    16    15    1
    14    16    17    1
    15    17    18    1
    16    17    19    1
    17    20    17    1
    18    20    21    1
    19    20    13    1
    20    21    16    1
    21    22    26    1
    22    26    27   ar
    23    28    29   ar
    24    29    34    1
    25    30    33    1
    26    30    32   ar
    27    31    33    1
    28    31    34    1
    29     5     4   ar
    30     5     1   ar
    31    23    22   am
    32     1     2   ar
    33     3     4   ar
    34    13    14    2
    35    22    24    2
    36    27    28   ar
    37    29    30   ar
    38    32    26   ar
    39    23    25    1
@<TRIPOS>MOLECULE
MolPort-005-103-567 12481498 CSSS00159780969 MCULE-5989226260 PubChem-25313221 ZINC000012481498
 34 39 0 0 0
SMALL
GASTEIGER

@<TRIPOS>ATOM
      1 C          15.9444   42.7421    7.2409 C.ar    1  UNL1        0.1328
      2 C          16.3946   43.6610    6.3117 C.ar    1  UNL1        0.0565
      3 C          17.7218   43.8627    6.6762 C.ar    1  UNL1        0.1230
      4 N          18.0191   43.1061    7.7540 N.ar    1  UNL1       -0.1666
      5 N          16.9359   42.4262    8.0846 N.ar    1  UNL1       -0.2394
      6 C          16.8384   41.5205    9.2226 C.3     1  UNL1        0.1093
      7 C          15.5166   40.7699    9.1916 C.3     1  UNL1        0.0418
      8 C          15.4211   39.8298   10.3925 C.3     1  UNL1        0.0744
      9 C          17.8907   39.5843   10.3978 C.3     1  UNL1        0.0744
     10 C          17.9863   40.5247    9.1984 C.3     1  UNL1        0.0418
     11 N          16.5786   38.9281   10.5080 N.3     1  UNL1       -0.2691
     12 C          16.4606   37.6899    9.7250 C.3     1  UNL1        0.0945
     13 C          15.1575   36.9626    9.8958 C.2     1  UNL1       -0.0329
     14 C          14.9030   35.8219    9.2037 C.2     1  UNL1       -0.0333
     15 C          13.5015   35.2023    9.3121 C.3     1  UNL1        0.0254
     16 C          12.5629   36.0882   10.1979 C.3     1  UNL1        0.0049
     17 C          12.7429   37.5640    9.8022 C.3     1  UNL1        0.0038
     18 C          12.9109   37.8807    8.3122 C.3     1  UNL1        0.0003
     19 C          11.6379   38.4372   10.3854 C.3     1  UNL1        0.0003
     20 C          14.0030   37.5847   10.6871 C.3     1  UNL1        0.0193
     21 C          13.4043   36.3904   11.4417 C.3     1  UNL1        0.0044
     22 C          13.4671   42.6790    6.6332 C.2     1  UNL1        0.2506
     23 N          14.6225   42.1955    7.3317 N.am    1  UNL1       -0.2660
     24 O          13.5604   43.6594    5.8451 O.2     1  UNL1       -0.2698
     25 H          14.4967   41.4205    7.9256 H       1  UNL1        0.1566
     26 C          12.1633   42.0238    6.8358 C.ar    1  UNL1        0.0569
     27 C          11.6646   41.8217    8.1461 C.ar    1  UNL1        0.0078
     28 C          10.4230   41.1958    8.3570 C.ar    1  UNL1        0.0403
     29 C           9.7111   40.7876    7.2330 C.ar    1  UNL1        0.1764
     30 C          10.1803   40.9781    5.9744 C.ar    1  UNL1        0.1766
     31 C           8.1598   39.9407    5.7951 C.3     1  UNL1        0.4294
     32 C          11.4045   41.5931    5.7264 C.ar    1  UNL1        0.0447
     33 O           9.2708   40.4787    5.0640 O.3     1  UNL1       -0.4346
     34 O           8.4839   40.1577    7.1760 O.3     1  UNL1       -0.4346
@<TRIPOS>BOND
     1     1    23    1
     2     2     3   ar
     3     6     5    1
     4     6     7    1
     5     7     8    1
     6     8    11    1
     7     9    11    1
     8     9    10    1
     9    10     6    1
    10    12    11    1
    11    12    13    1
    12    15    14    1
    13    16    15    1
    14    16    17    1
    15    17    18    1
    16    17    19    1
    17    20    17    1
    18    20    21    1
    19    20    13    1
    20    21    16    1
    21    22    26    1
    22    26    27   ar
    23    28    29   ar
    24    29    34    1
    25    30    33    1
    26    30    32   ar
    27    31    33    1
    28    31    34    1
    29     5     4   ar
    30     5     1   ar
    31    23    22   am
    32     1     2   ar
    33     3     4   ar
    34    13    14    2
    35    22    24    2
    36    27    28   ar
    37    29    30   ar
    38    32    26   ar
    39    23    25    1
@<TRIPOS>MOLECULE
MolPort-005-103-567 12481498 CSSS00159780969 MCULE-5989226260 PubChem-25313221 ZINC000012481498
 34 39 0 0 0
SMALL
GASTEIGER

@<TRIPOS>ATOM
      1 C          13.9194   38.9589   10.3441 C.ar    1  UNL1        0.1328
      2 C          14.6442   38.6934   11.4907 C.ar    1  UNL1        0.0565
      3 C          14.1095   37.4895   11.9374 C.ar    1  UNL1        0.1230
      4 N          13.1318   37.0852   11.0987 N.ar    1  UNL1       -0.1666
      5 N          13.0289   37.9806   10.1329 N.ar    1  UNL1       -0.2394
      6 C          12.0581   37.9235    9.0470 C.3     1  UNL1        0.1093
      7 C          10.6740   37.6039    9.5891 C.3     1  UNL1        0.0418
      8 C           9.6660   37.5383    8.4425 C.3     1  UNL1        0.0744
      9 C          11.0103   39.1877    7.1651 C.3     1  UNL1        0.0744
     10 C          12.0184   39.2523    8.3105 C.3     1  UNL1        0.0418
     11 N           9.6765   38.7454    7.6004 N.3     1  UNL1       -0.2691
     12 C           8.8157   39.8314    8.0902 C.3     1  UNL1        0.0945
     13 C           9.4893   40.7884    9.0318 C.2     1  UNL1       -0.0329
     14 C           9.8686   40.3896   10.2735 C.2     1  UNL1       -0.0333
     15 C          10.4223   41.4474   11.2402 C.3     1  UNL1        0.0254
     16 C          10.3813   42.8732   10.5956 C.3     1  UNL1        0.0049
     17 C           9.0221   43.0739    9.9032 C.3     1  UNL1        0.0038
     18 C           7.7806   42.5179   10.6090 C.3     1  UNL1        0.0003
     19 C           8.7892   44.5367    9.5435 C.3     1  UNL1        0.0003
     20 C           9.5829   42.2824    8.7071 C.3     1  UNL1        0.0193
     21 C          10.9832   42.6672    9.2022 C.3     1  UNL1        0.0044
     22 C          15.2840   40.5705    8.9120 C.2     1  UNL1        0.2506
     23 N          14.0582   40.1017    9.4902 N.am    1  UNL1       -0.2660
     24 O          16.3663   39.9586    9.1249 O.2     1  UNL1       -0.2698
     25 H          13.2406   40.6093    9.2825 H       1  UNL1        0.1566
     26 C          15.2778   41.7731    8.0612 C.ar    1  UNL1        0.0569
     27 C          14.0625   42.2485    7.5102 C.ar    1  UNL1        0.0078
     28 C          14.0396   43.3937    6.6942 C.ar    1  UNL1        0.0403
     29 C          15.2512   44.0348    6.4540 C.ar    1  UNL1        0.1764
     30 C          16.4197   43.5874    6.9785 C.ar    1  UNL1        0.1766
     31 C          16.8959   45.4447    5.7479 C.3     1  UNL1        0.4294
     32 C          16.4818   42.4576    7.7898 C.ar    1  UNL1        0.0447
     33 O          17.4503   44.4131    6.5766 O.3     1  UNL1       -0.4346
     34 O          15.4898   45.1632    5.6952 O.3     1  UNL1       -0.4346
@<TRIPOS>BOND
     1     1    23    1
     2     2     3   ar
     3     6     5    1
     4     6     7    1
     5     7     8    1
     6     8    11    1
     7     9    11    1
     8     9    10    1
     9    10     6    1
    10    12    11    1
    11    12    13    1
    12    15    14    1
    13    16    15    1
    14    16    17    1
    15    17    18    1
    16    17    19    1
    17    20    17    1
    18    20    21    1
    19    20    13    1
    20    21    16    1
    21    22    26    1
    22    26    27   ar
    23    28    29   ar
    24    29    34    1
    25    30    33    1
    26    30    32   ar
    27    31    33    1
    28    31    34    1
    29     5     4   ar
    30     5     1   ar
    31    23    22   am
    32     1     2   ar
    33     3     4   ar
    34    13    14    2
    35    22    24    2
    36    27    28   ar
    37    29    30   ar
    38    32    26   ar
    39    23    25    1
@<TRIPOS>MOLECULE
MolPort-005-103-567 12481498 CSSS00159780969 MCULE-5989226260 PubChem-25313221 ZINC000012481498
 34 39 0 0 0
SMALL
GASTEIGER

@<TRIPOS>ATOM
      1 C           9.3217   41.5548   11.4948 C.ar    1  UNL1        0.1328
      2 C           9.4498   41.2619   12.8395 C.ar    1  UNL1        0.0565
      3 C          10.7319   40.7303   12.9319 C.ar    1  UNL1        0.1230
      4 N          11.3089   40.7155   11.7115 N.ar    1  UNL1       -0.1666
      5 N          10.4473   41.2231   10.8484 N.ar    1  UNL1       -0.2394
      6 C          10.6816   41.3457    9.4149 C.3     1  UNL1        0.1093
      7 C          11.4884   42.5989    9.1145 C.3     1  UNL1        0.0418
      8 C          11.7214   42.7222    7.6093 C.3     1  UNL1        0.0744
      9 C          11.6643   40.2501    7.3971 C.3     1  UNL1        0.0744
     10 C          11.4303   40.1269    8.9012 C.3     1  UNL1        0.0418
     11 N          12.3190   41.5127    7.0209 N.3     1  UNL1       -0.2691
     12 C          13.7866   41.4697    7.0885 C.3     1  UNL1        0.0945
     13 C          14.4603   42.8029    6.9306 C.2     1  UNL1       -0.0329
     14 C          13.7503   43.9003    6.5614 C.2     1  UNL1       -0.0333
     15 C          14.5163   45.2015    6.2785 C.3     1  UNL1        0.0254
     16 C          16.0605   44.9849    6.4152 C.3     1  UNL1        0.0049
     17 C          16.4492   43.6734    5.7111 C.3     1  UNL1        0.0038
     18 C          15.7450   43.3449    4.3902 C.3     1  UNL1        0.0003
     19 C          17.9580   43.5670    5.5222 C.3     1  UNL1        0.0003
     20 C          15.9862   42.9276    6.9764 C.3     1  UNL1        0.0193
     21 C          16.2135   44.2370    7.7432 C.3     1  UNL1        0.0044
     22 C           6.8123   41.7144   11.0616 C.2     1  UNL1        0.2506
     23 N           8.1723   42.1156   10.8475 N.am    1  UNL1       -0.2660
     24 O           6.5374   40.8030   11.8892 O.2     1  UNL1       -0.2698
     25 H           8.3304   42.8396   10.1993 H       1  UNL1        0.1566
     26 C           5.7292   42.3736   10.3117 C.ar    1  UNL1        0.0569
     27 C           4.3827   41.9847   10.5170 C.ar    1  UNL1        0.0078
     28 C           3.3371   42.6023    9.8075 C.ar    1  UNL1        0.0403
     29 C           3.6789   43.6035    8.9035 C.ar    1  UNL1        0.1764
     30 C           4.9656   43.9833    8.7013 C.ar    1  UNL1        0.1766
     31 C           3.6595   45.2605    7.3397 C.3     1  UNL1        0.4294
     32 C           6.0266   43.3950    9.3842 C.ar    1  UNL1        0.0447
     33 O           5.0051   44.9897    7.7572 O.3     1  UNL1       -0.4346
     34 O           2.8461   44.3516    8.0955 O.3     1  UNL1       -0.4346
@<TRIPOS>BOND
     1     1    23    1
     2     2     3   ar
     3     6     5    1
     4     6     7    1
     5     7     8    1
     6     8    11    1
     7     9    11    1
     8     9    10    1
     9    10     6    1
    10    12    11    1
    11    12    13    1
    12    15    14    1
    13    16    15    1
    14    16    17    1
    15    17    18    1
    16    17    19    1
    17    20    17    1
    18    20    21    1
    19    20    13    1
    20    21    16    1
    21    22    26    1
    22    26    27   ar
    23    28    29   ar
    24    29    34    1
    25    30    33    1
    26    30    32   ar
    27    31    33    1
    28    31    34    1
    29     5     4   ar
    30     5     1   ar
    31    23    22   am
    32     1     2   ar
    33     3     4   ar
    34    13    14    2
    35    22    24    2
    36    27    28   ar
    37    29    30   ar
    38    32    26   ar
    39    23    25    1
@<TRIPOS>MOLECULE
MolPort-005-103-567 12481498 CSSS00159780969 MCULE-5989226260 PubChem-25313221 ZINC000012481498
 34 39 0 0 0
SMALL
GASTEIGER

@<TRIPOS>ATOM
      1 C          14.4498   38.9469   10.4125 C.ar    1  UNL1        0.1328
      2 C          15.1092   38.5290   11.5532 C.ar    1  UNL1        0.0565
      3 C          14.4239   37.3740   11.9156 C.ar    1  UNL1        0.1230
      4 N          13.4262   37.1405   11.0366 N.ar    1  UNL1       -0.1666
      5 N          13.4546   38.0970   10.1261 N.ar    1  UNL1       -0.2394
      6 C          12.5111   38.2213    9.0219 C.3     1  UNL1        0.1093
      7 C          11.0961   38.3955    9.5502 C.3     1  UNL1        0.0418
      8 C          10.1145   38.5165    8.3853 C.3     1  UNL1        0.0744
      9 C          11.8955   39.5353    6.9892 C.3     1  UNL1        0.0744
     10 C          12.8769   39.4133    8.1529 C.3     1  UNL1        0.0418
     11 N          10.4909   39.5668    7.4254 N.3     1  UNL1       -0.2691
     12 C          10.0022   40.9082    7.7749 C.3     1  UNL1        0.0945
     13 C           8.5107   41.0142    7.9172 C.2     1  UNL1       -0.0329
     14 C           7.6843   40.2640    7.1432 C.2     1  UNL1       -0.0333
     15 C           6.1720   40.5186    7.2340 C.3     1  UNL1        0.0254
     16 C           5.8597   41.7036    8.2079 C.3     1  UNL1        0.0049
     17 C           6.8370   42.8579    7.9260 C.3     1  UNL1        0.0038
     18 C           7.1895   43.1438    6.4622 C.3     1  UNL1        0.0003
     19 C           6.3867   44.1483    8.6011 C.3     1  UNL1        0.0003
     20 C           7.8749   42.1076    8.7811 C.3     1  UNL1        0.0193
     21 C           6.6962   41.3906    9.4523 C.3     1  UNL1        0.0044
     22 C          16.0561   40.5724    9.2778 C.2     1  UNL1        0.2506
     23 N          14.7449   40.1130    9.6330 N.am    1  UNL1       -0.2660
     24 O          17.0788   39.9302    9.6417 O.2     1  UNL1       -0.2698
     25 H          13.9806   40.6450    9.3135 H       1  UNL1        0.1566
     26 C          16.2086   41.8014    8.4799 C.ar    1  UNL1        0.0569
     27 C          17.4190   42.5355    8.5285 C.ar    1  UNL1        0.0078
     28 C          17.5800   43.7120    7.7748 C.ar    1  UNL1        0.0403
     29 C          16.5089   44.1201    6.9857 C.ar    1  UNL1        0.1764
     30 C          15.3464   43.4227    6.9321 C.ar    1  UNL1        0.1766
     31 C          15.1208   45.2238    5.5551 C.3     1  UNL1        0.4294
     32 C          15.1500   42.2547    7.6639 C.ar    1  UNL1        0.0447
     33 O          14.4695   44.0556    6.0741 O.3     1  UNL1       -0.4346
     34 O          16.4196   45.2267    6.1651 O.3     1  UNL1       -0.4346
@<TRIPOS>BOND
     1     1    23    1
     2     2     3   ar
     3     6     5    1
     4     6     7    1
     5     7     8    1
     6     8    11    1
     7     9    11    1
     8     9    10    1
     9    10     6    1
    10    12    11    1
    11    12    13    1
    12    15    14    1
    13    16    15    1
    14    16    17    1
    15    17    18    1
    16    17    19    1
    17    20    17    1
    18    20    21    1
    19    20    13    1
    20    21    16    1
    21    22    26    1
    22    26    27   ar
    23    28    29   ar
    24    29    34    1
    25    30    33    1
    26    30    32   ar
    27    31    33    1
    28    31    34    1
    29     5     4   ar
    30     5     1   ar
    31    23    22   am
    32     1     2   ar
    33     3     4   ar
    34    13    14    2
    35    22    24    2
    36    27    28   ar
    37    29    30   ar
    38    32    26   ar
    39    23    25    1
@<TRIPOS>MOLECULE
MolPort-005-103-567 12481498 CSSS00159780969 MCULE-5989226260 PubChem-25313221 ZINC000012481498
 34 39 0 0 0
SMALL
GASTEIGER

@<TRIPOS>ATOM
      1 C           9.1657   41.8782    6.9858 C.ar    1  UNL1        0.1328
      2 C           8.2783   42.2798    6.0050 C.ar    1  UNL1        0.0565
      3 C           7.0949   41.6413    6.3614 C.ar    1  UNL1        0.1230
      4 N           7.2889   40.9123    7.4810 N.ar    1  UNL1       -0.1666
      5 N           8.5464   41.0678    7.8544 N.ar    1  UNL1       -0.2394
      6 C           9.1595   40.4113    9.0025 C.3     1  UNL1        0.1093
      7 C          10.2961   39.5073    8.5522 C.3     1  UNL1        0.0418
      8 C          10.9261   38.8180    9.7618 C.3     1  UNL1        0.0744
      9 C          10.3247   40.7613   11.1836 C.3     1  UNL1        0.0744
     10 C           9.6940   41.4497    9.9750 C.3     1  UNL1        0.0418
     11 N          11.3405   39.7649   10.8096 N.3     1  UNL1       -0.2691
     12 C          12.6867   40.3238   10.6210 C.3     1  UNL1        0.0945
     13 C          13.7990   39.3171   10.6954 C.2     1  UNL1       -0.0329
     14 C          15.0611   39.6476   10.3177 C.2     1  UNL1       -0.0333
     15 C          16.1237   38.5388   10.2813 C.3     1  UNL1        0.0254
     16 C          15.4990   37.1503   10.6449 C.3     1  UNL1        0.0049
     17 C          14.1647   36.9871    9.8965 C.3     1  UNL1        0.0038
     18 C          14.0952   37.5029    8.4551 C.3     1  UNL1        0.0003
     19 C          13.6702   35.5460    9.9445 C.3     1  UNL1        0.0003
     20 C          13.5120   37.8432   10.9977 C.3     1  UNL1        0.0193
     21 C          14.6778   37.4327   11.9067 C.3     1  UNL1        0.0044
     22 C          11.6120   41.7165    6.2789 C.2     1  UNL1        0.2506
     23 N          10.5490   42.2395    7.0871 N.am    1  UNL1       -0.2660
     24 O          11.3705   40.8719    5.3737 O.2     1  UNL1       -0.2698
     25 H          10.7906   42.9047    7.7715 H       1  UNL1        0.1566
     26 C          12.9945   42.1716    6.5060 C.ar    1  UNL1        0.0569
     27 C          13.7952   41.5486    7.4947 C.ar    1  UNL1        0.0078
     28 C          15.1161   41.9725    7.7257 C.ar    1  UNL1        0.0403
     29 C          15.5990   43.0204    6.9477 C.ar    1  UNL1        0.1764
     30 C          14.8399   43.6221    5.9978 C.ar    1  UNL1        0.1766
     31 C          16.8741   44.6482    5.9905 C.3     1  UNL1        0.4294
     32 C          13.5287   43.2306    5.7411 C.ar    1  UNL1        0.0447
     33 O          15.5727   44.6202    5.3875 O.3     1  UNL1       -0.4346
     34 O          16.8462   43.6116    6.9825 O.3     1  UNL1       -0.4346
@<TRIPOS>BOND
     1     1    23    1
     2     2     3   ar
     3     6     5    1
     4     6     7    1
     5     7     8    1
     6     8    11    1
     7     9    11    1
     8     9    10    1
     9    10     6    1
    10    12    11    1
    11    12    13    1
    12    15    14    1
    13    16    15    1
    14    16    17    1
    15    17    18    1
    16    17    19    1
    17    20    17    1
    18    20    21    1
    19    20    13    1
    20    21    16    1
    21    22    26    1
    22    26    27   ar
    23    28    29   ar
    24    29    34    1
    25    30    33    1
    26    30    32   ar
    27    31    33    1
    28    31    34    1
    29     5     4   ar
    30     5     1   ar
    31    23    22   am
    32     1     2   ar
    33     3     4   ar
    34    13    14    2
    35    22    24    2
    36    27    28   ar
    37    29    30   ar
    38    32    26   ar
    39    23    25    1
@<TRIPOS>MOLECULE
MolPort-005-103-567 12481498 CSSS00159780969 MCULE-5989226260 PubChem-25313221 ZINC000012481498
 34 39 0 0 0
SMALL
GASTEIGER

@<TRIPOS>ATOM
      1 C          10.2676   40.8942    5.5030 C.ar    1  UNL1        0.1328
      2 C          10.1051   39.8523    4.6092 C.ar    1  UNL1        0.0565
      3 C           8.8100   39.4118    4.8614 C.ar    1  UNL1        0.1230
      4 N           8.2585   40.1546    5.8446 N.ar    1  UNL1       -0.1666
      5 N           9.1489   41.0543    6.2223 N.ar    1  UNL1       -0.2394
      6 C           8.9473   42.0250    7.2909 C.3     1  UNL1        0.1093
      7 C           7.4665   42.1697    7.6038 C.3     1  UNL1        0.0418
      8 C           7.2657   43.1950    8.7190 C.3     1  UNL1        0.0744
      9 C           9.4870   42.6095    9.6583 C.3     1  UNL1        0.0744
     10 C           9.6882   41.5858    8.5431 C.3     1  UNL1        0.0418
     11 N           8.0689   42.9030    9.9173 N.3     1  UNL1       -0.2691
     12 C           7.4288   41.9779   10.8632 C.3     1  UNL1        0.0945
     13 C           6.0854   41.4666   10.4274 C.2     1  UNL1       -0.0329
     14 C           5.8605   41.1205    9.1333 C.2     1  UNL1       -0.0333
     15 C           4.4307   40.7405    8.7195 C.3     1  UNL1        0.0254
     16 C           3.4388   40.8953    9.9206 C.3     1  UNL1        0.0049
     17 C           3.7232   42.2252   10.6401 C.3     1  UNL1        0.0038
     18 C           4.0669   43.4396    9.7709 C.3     1  UNL1        0.0003
     19 C           2.5987   42.5912   11.6019 C.3     1  UNL1        0.0003
     20 C           4.8783   41.5140   11.3690 C.3     1  UNL1        0.0193
     21 C           4.1506   40.1942   11.0816 C.3     1  UNL1        0.0044
     22 C          12.5562   41.3799    6.5211 C.2     1  UNL1        0.2506
     23 N          11.4423   41.6972    5.6756 N.am    1  UNL1       -0.2660
     24 O          12.5689   40.3083    7.1863 O.2     1  UNL1       -0.2698
     25 H          11.4884   42.5403    5.1694 H       1  UNL1        0.1566
     26 C          13.6943   42.3110    6.6107 C.ar    1  UNL1        0.0569
     27 C          13.6732   43.5315    5.8922 C.ar    1  UNL1        0.0078
     28 C          14.7524   44.4304    5.9650 C.ar    1  UNL1        0.0403
     29 C          15.8322   44.0728    6.7667 C.ar    1  UNL1        0.1764
     30 C          15.8605   42.9066    7.4594 C.ar    1  UNL1        0.1766
     31 C          17.8088   44.0033    7.8980 C.3     1  UNL1        0.4294
     32 C          14.8118   41.9922    7.4117 C.ar    1  UNL1        0.0447
     33 O          17.0446   42.8186    8.1636 O.3     1  UNL1       -0.4346
     34 O          16.9978   44.7749    7.0002 O.3     1  UNL1       -0.4346
@<TRIPOS>BOND
     1     1    23    1
     2     2     3   ar
     3     6     5    1
     4     6     7    1
     5     7     8    1
     6     8    11    1
     7     9    11    1
     8     9    10    1
     9    10     6    1
    10    12    11    1
    11    12    13    1
    12    15    14    1
    13    16    15    1
    14    16    17    1
    15    17    18    1
    16    17    19    1
    17    20    17    1
    18    20    21    1
    19    20    13    1
    20    21    16    1
    21    22    26    1
    22    26    27   ar
    23    28    29   ar
    24    29    34    1
    25    30    33    1
    26    30    32   ar
    27    31    33    1
    28    31    34    1
    29     5     4   ar
    30     5     1   ar
    31    23    22   am
    32     1     2   ar
    33     3     4   ar
    34    13    14    2
    35    22    24    2
    36    27    28   ar
    37    29    30   ar
    38    32    26   ar
    39    23    25    1
@<TRIPOS>MOLECULE
MolPort-005-103-567 12481498 CSSS00159780969 MCULE-5989226260 PubChem-25313221 ZINC000012481498
 34 39 0 0 0
SMALL
GASTEIGER

@<TRIPOS>ATOM
      1 C           6.7187   42.8851    7.6476 C.ar    1  UNL1        0.1328
      2 C           6.4266   43.6598    6.5408 C.ar    1  UNL1        0.0565
      3 C           7.5703   43.5452    5.7574 C.ar    1  UNL1        0.1230
      4 N           8.4705   42.7524    6.3771 N.ar    1  UNL1       -0.1666
      5 N           7.9415   42.3529    7.5197 N.ar    1  UNL1       -0.2394
      6 C           8.6171   41.5097    8.4982 C.3     1  UNL1        0.1093
      7 C           9.6848   40.6640    7.8225 C.3     1  UNL1        0.0418
      8 C          10.3810   39.7784    8.8550 C.3     1  UNL1        0.0744
      9 C           9.9558   41.4846   10.6064 C.3     1  UNL1        0.0744
     10 C           9.2590   42.3692    9.5748 C.3     1  UNL1        0.0418
     11 N          10.9057   40.5382   10.0012 N.3     1  UNL1       -0.2691
     12 C          12.2520   41.0906    9.7946 C.3     1  UNL1        0.0945
     13 C          13.3735   40.1602   10.1590 C.2     1  UNL1       -0.0329
     14 C          14.5972   40.2889    9.5838 C.2     1  UNL1       -0.0333
     15 C          15.6606   39.2231    9.8891 C.3     1  UNL1        0.0254
     16 C          15.0781   38.0951   10.8049 C.3     1  UNL1        0.0049
     17 C          13.6869   37.6931   10.2854 C.3     1  UNL1        0.0038
     18 C          13.4932   37.6214    8.7668 C.3     1  UNL1        0.0003
     19 C          13.2081   36.3926   10.9202 C.3     1  UNL1        0.0003
     20 C          13.1230   38.9211   11.0239 C.3     1  UNL1        0.0193
     21 C          14.3638   38.8586   11.9242 C.3     1  UNL1        0.0044
     22 C           5.0572   41.5136    9.0146 C.2     1  UNL1        0.2506
     23 N           5.8758   42.6688    8.7865 N.am    1  UNL1       -0.2660
     24 O           5.0451   40.5646    8.1837 O.2     1  UNL1       -0.2698
     25 H           5.8570   43.3751    9.4721 H       1  UNL1        0.1566
     26 C           4.2274   41.4341   10.2292 C.ar    1  UNL1        0.0569
     27 C           4.4745   40.4279   11.1951 C.ar    1  UNL1        0.0078
     28 C           3.6902   40.3368   12.3589 C.ar    1  UNL1        0.0403
     29 C           2.6704   41.2698   12.5200 C.ar    1  UNL1        0.1764
     30 C           2.4273   42.2377   11.6008 C.ar    1  UNL1        0.1766
     31 C           0.9132   42.5038   13.2825 C.3     1  UNL1        0.4294
     32 C           3.1817   42.3589   10.4370 C.ar    1  UNL1        0.0447
     33 O           1.3660   43.0143   12.0205 O.3     1  UNL1       -0.4346
     34 O           1.7729   41.3894   13.5622 O.3     1  UNL1       -0.4346
@<TRIPOS>BOND
     1     1    23    1
     2     2     3   ar
     3     6     5    1
     4     6     7    1
     5     7     8    1
     6     8    11    1
     7     9    11    1
     8     9    10    1
     9    10     6    1
    10    12    11    1
    11    12    13    1
    12    15    14    1
    13    16    15    1
    14    16    17    1
    15    17    18    1
    16    17    19    1
    17    20    17    1
    18    20    21    1
    19    20    13    1
    20    21    16    1
    21    22    26    1
    22    26    27   ar
    23    28    29   ar
    24    29    34    1
    25    30    33    1
    26    30    32   ar
    27    31    33    1
    28    31    34    1
    29     5     4   ar
    30     5     1   ar
    31    23    22   am
    32     1     2   ar
    33     3     4   ar
    34    13    14    2
    35    22    24    2
    36    27    28   ar
    37    29    30   ar
    38    32    26   ar
    39    23    25    1
