@<TRIPOS>MOLECULE
MolPort-001-571-316 CSSS00132419744 MCULE-7383928779 PubChem-4029104
 28 30 0 0 0
SMALL
GASTEIGER

@<TRIPOS>ATOM
      1 C           9.9897   40.6327    7.9871 C.ar    1  UNL1        0.1403
      2 C           9.3533   40.5623    6.7376 C.ar    1  UNL1        0.0370
      3 C          10.0644   40.8453    5.5695 C.ar    1  UNL1        0.0044
      4 C          11.4137   41.1995    5.6432 C.ar    1  UNL1        0.0149
      5 C          12.0613   41.2732    6.8855 C.ar    1  UNL1        0.0536
      6 C          11.3409   40.9883    8.0507 C.ar    1  UNL1        0.0516
      7 C          14.0431   42.8860    6.6346 C.2     1  UNL1        0.2495
      8 O          13.3411   43.8161    6.1523 O.2     1  UNL1       -0.2698
      9 N          13.4445   41.6333    7.0015 N.am    1  UNL1       -0.2803
     10 H          14.0477   40.9490    7.3718 H       1  UNL1        0.1552
     11 C          15.4908   43.0862    6.8234 C.ar    1  UNL1        0.0537
     12 C          16.2078   43.9301    5.9623 C.ar    1  UNL1        0.0045
     13 C          17.5812   44.1206    6.1404 C.ar    1  UNL1        0.0001
     14 C          18.2481   43.4687    7.1810 C.ar    1  UNL1        0.0000
     15 C          17.5419   42.6261    8.0436 C.ar    1  UNL1        0.0001
     16 C          16.1684   42.4356    7.8656 C.ar    1  UNL1        0.0045
     17 O           9.3051   40.3587    9.1745 O.3     1  UNL1       -0.4713
     18 C          10.5928   41.1185   11.0625 C.3     1  UNL1        0.0559
     19 C           9.2999   41.2526   10.2806 C.3     1  UNL1        0.2267
     20 C           9.1019   42.6592    9.8065 C.2     1  UNL1        0.2127
     21 O          10.0870   43.4471    9.7788 O.2     1  UNL1       -0.2875
     22 C           7.7746   43.1211    9.3563 C.ar    1  UNL1        0.0383
     23 C           6.6411   42.3204    9.5633 C.ar    1  UNL1        0.0026
     24 C           5.3809   42.7547    9.1421 C.ar    1  UNL1       -0.0042
     25 C           5.2436   43.9936    8.5108 C.ar    1  UNL1       -0.0218
     26 C           3.9039   44.4554    8.0633 C.3     1  UNL1        0.0310
     27 C           6.3662   44.7985    8.3003 C.ar    1  UNL1       -0.0042
     28 C           7.6263   44.3642    8.7213 C.ar    1  UNL1        0.0026
@<TRIPOS>BOND
     1    19    18    1
     2    19    17    1
     3    19    20    1
     4     1    17    1
     5     2     3   ar
     6     4     5   ar
     7     5     9    1
     8     7    11    1
     9    12    13   ar
    10    14    15   ar
    11    16    11   ar
    12     6     1   ar
    13    20    22    1
    14    23    24   ar
    15    25    27   ar
    16    26    25    1
    17    28    22   ar
    18     9     7   am
    19     1     2   ar
    20     3     4   ar
    21     5     6   ar
    22     7     8    2
    23    11    12   ar
    24    13    14   ar
    25    15    16   ar
    26    20    21    2
    27    22    23   ar
    28    24    25   ar
    29    27    28   ar
    30     9    10    1
@<TRIPOS>MOLECULE
MolPort-001-571-316 CSSS00132419744 MCULE-7383928779 PubChem-4029104
 28 30 0 0 0
SMALL
GASTEIGER

@<TRIPOS>ATOM
      1 C          11.5462   40.5405   10.3757 C.ar    1  UNL1        0.1403
      2 C          12.1660   41.4867    9.5440 C.ar    1  UNL1        0.0370
      3 C          11.4142   42.5068    8.9574 C.ar    1  UNL1        0.0044
      4 C          10.0406   42.5874    9.1983 C.ar    1  UNL1        0.0149
      5 C           9.4092   41.6483   10.0275 C.ar    1  UNL1        0.0536
      6 C          10.1703   40.6294   10.6109 C.ar    1  UNL1        0.0516
      7 C           6.9390   41.3190    9.4101 C.2     1  UNL1        0.2495
      8 O           7.1928   40.8876    8.2525 O.2     1  UNL1       -0.2698
      9 N           8.0019   41.6981   10.2983 N.am    1  UNL1       -0.2803
     10 H           7.7362   42.0270   11.1873 H       1  UNL1        0.1552
     11 C           5.5391   41.4354    9.8555 C.ar    1  UNL1        0.0537
     12 C           4.4888   41.2942    8.9365 C.ar    1  UNL1        0.0045
     13 C           3.1605   41.4046    9.3580 C.ar    1  UNL1        0.0001
     14 C           2.8723   41.6570   10.7018 C.ar    1  UNL1        0.0000
     15 C           3.9122   41.7992   11.6243 C.ar    1  UNL1        0.0001
     16 C           5.2406   41.6888   11.2030 C.ar    1  UNL1        0.0045
     17 O          12.2701   39.5058   10.9750 O.3     1  UNL1       -0.4713
     18 C          12.4337   38.4765    8.8039 C.3     1  UNL1        0.0559
     19 C          12.5661   38.2878   10.3031 C.3     1  UNL1        0.2267
     20 C          13.9411   37.8189   10.6665 C.2     1  UNL1        0.2127
     21 O          14.5343   38.3441   11.6485 O.2     1  UNL1       -0.2875
     22 C          14.5946   36.7401    9.9004 C.ar    1  UNL1        0.0383
     23 C          13.9196   35.5327    9.6654 C.ar    1  UNL1        0.0026
     24 C          14.5326   34.5089    8.9373 C.ar    1  UNL1       -0.0042
     25 C          15.8256   34.6842    8.4376 C.ar    1  UNL1       -0.0218
     26 C          16.4771   33.5960    7.6633 C.3     1  UNL1        0.0310
     27 C          16.5062   35.8830    8.6660 C.ar    1  UNL1       -0.0042
     28 C          15.8932   36.9066    9.3943 C.ar    1  UNL1        0.0026
@<TRIPOS>BOND
     1    19    18    1
     2    19    17    1
     3    19    20    1
     4     1    17    1
     5     2     3   ar
     6     4     5   ar
     7     5     9    1
     8     7    11    1
     9    12    13   ar
    10    14    15   ar
    11    16    11   ar
    12     6     1   ar
    13    20    22    1
    14    23    24   ar
    15    25    27   ar
    16    26    25    1
    17    28    22   ar
    18     9     7   am
    19     1     2   ar
    20     3     4   ar
    21     5     6   ar
    22     7     8    2
    23    11    12   ar
    24    13    14   ar
    25    15    16   ar
    26    20    21    2
    27    22    23   ar
    28    24    25   ar
    29    27    28   ar
    30     9    10    1
@<TRIPOS>MOLECULE
MolPort-001-571-316 CSSS00132419744 MCULE-7383928779 PubChem-4029104
 28 30 0 0 0
SMALL
GASTEIGER

@<TRIPOS>ATOM
      1 C          10.8429   39.6097    7.4626 C.ar    1  UNL1        0.1403
      2 C           9.9657   40.2936    6.6058 C.ar    1  UNL1        0.0370
      3 C          10.4041   41.4166    5.9010 C.ar    1  UNL1        0.0044
      4 C          11.7200   41.8620    6.0479 C.ar    1  UNL1        0.0149
      5 C          12.6066   41.1874    6.9006 C.ar    1  UNL1        0.0536
      6 C          12.1586   40.0633    7.6030 C.ar    1  UNL1        0.0516
      7 C          14.4995   42.9194    6.8087 C.2     1  UNL1        0.2495
      8 O          13.7577   43.8394    6.3683 O.2     1  UNL1       -0.2698
      9 N          13.9641   41.6143    7.0774 N.am    1  UNL1       -0.2803
     10 H          14.5960   40.9413    7.4193 H       1  UNL1        0.1552
     11 C          15.9287   43.1859    7.0496 C.ar    1  UNL1        0.0537
     12 C          16.6284   42.4664    8.0297 C.ar    1  UNL1        0.0045
     13 C          17.9842   42.7186    8.2592 C.ar    1  UNL1        0.0001
     14 C          18.6505   43.6920    7.5102 C.ar    1  UNL1        0.0000
     15 C          17.9615   44.4136    6.5318 C.ar    1  UNL1        0.0001
     16 C          16.6057   44.1615    6.3022 C.ar    1  UNL1        0.0045
     17 O          10.4338   38.4848    8.1842 O.3     1  UNL1       -0.4713
     18 C          11.2497   37.2229   10.0661 C.3     1  UNL1        0.0559
     19 C          10.4609   38.4336    9.6051 C.3     1  UNL1        0.2267
     20 C          11.0453   39.6976   10.1561 C.2     1  UNL1        0.2127
     21 O          12.1835   39.6671   10.6998 O.2     1  UNL1       -0.2875
     22 C          10.3117   40.9737   10.0506 C.ar    1  UNL1        0.0383
     23 C          10.9902   42.1924   10.2024 C.ar    1  UNL1        0.0026
     24 C          10.3008   43.4042   10.0999 C.ar    1  UNL1       -0.0042
     25 C           8.9271   43.4073    9.8441 C.ar    1  UNL1       -0.0218
     26 C           8.1944   44.6954    9.7348 C.3     1  UNL1        0.0310
     27 C           8.2424   42.1990    9.6910 C.ar    1  UNL1       -0.0042
     28 C           8.9317   40.9873    9.7937 C.ar    1  UNL1        0.0026
@<TRIPOS>BOND
     1    19    18    1
     2    19    17    1
     3    19    20    1
     4     1    17    1
     5     2     3   ar
     6     4     5   ar
     7     5     9    1
     8     7    11    1
     9    12    13   ar
    10    14    15   ar
    11    16    11   ar
    12     6     1   ar
    13    20    22    1
    14    23    24   ar
    15    25    27   ar
    16    26    25    1
    17    28    22   ar
    18     9     7   am
    19     1     2   ar
    20     3     4   ar
    21     5     6   ar
    22     7     8    2
    23    11    12   ar
    24    13    14   ar
    25    15    16   ar
    26    20    21    2
    27    22    23   ar
    28    24    25   ar
    29    27    28   ar
    30     9    10    1
@<TRIPOS>MOLECULE
MolPort-001-571-316 CSSS00132419744 MCULE-7383928779 PubChem-4029104
 28 30 0 0 0
SMALL
GASTEIGER

@<TRIPOS>ATOM
      1 C           8.5466   41.0385    6.0754 C.ar    1  UNL1        0.1403
      2 C           8.4867   39.7131    5.6162 C.ar    1  UNL1        0.0370
      3 C           9.6477   39.0625    5.1929 C.ar    1  UNL1        0.0044
      4 C          10.8735   39.7316    5.2264 C.ar    1  UNL1        0.0149
      5 C          10.9469   41.0560    5.6834 C.ar    1  UNL1        0.0536
      6 C           9.7786   41.7000    6.1053 C.ar    1  UNL1        0.0516
      7 C          13.0849   41.8702    6.8485 C.2     1  UNL1        0.2495
      8 O          12.8231   41.2854    7.9348 O.2     1  UNL1       -0.2698
      9 N          12.1863   41.7755    5.7323 N.am    1  UNL1       -0.2803
     10 H          12.4491   42.2555    4.9139 H       1  UNL1        0.1552
     11 C          14.3240   42.6580    6.7233 C.ar    1  UNL1        0.0537
     12 C          14.4054   43.7086    5.7974 C.ar    1  UNL1        0.0045
     13 C          15.5804   44.4564    5.6777 C.ar    1  UNL1        0.0001
     14 C          16.6830   44.1594    6.4831 C.ar    1  UNL1        0.0000
     15 C          16.6109   43.1146    7.4082 C.ar    1  UNL1        0.0001
     16 C          15.4359   42.3666    7.5280 C.ar    1  UNL1        0.0045
     17 O           7.4025   41.7183    6.5027 O.3     1  UNL1       -0.4713
     18 C           6.3312   43.7738    7.1563 C.3     1  UNL1        0.0559
     19 C           7.4511   42.7899    7.4365 C.3     1  UNL1        0.2267
     20 C           7.3644   42.2605    8.8346 C.2     1  UNL1        0.2127
     21 O           8.4144   41.8676    9.4134 O.2     1  UNL1       -0.2875
     22 C           6.0701   42.2139    9.5421 C.ar    1  UNL1        0.0383
     23 C           5.9844   41.6397   10.8194 C.ar    1  UNL1        0.0026
     24 C           4.7617   41.5960   11.4955 C.ar    1  UNL1       -0.0042
     25 C           3.6144   42.1268   10.9000 C.ar    1  UNL1       -0.0218
     26 C           2.3147   42.0807   11.6189 C.3     1  UNL1        0.0310
     27 C           3.6894   42.7010    9.6284 C.ar    1  UNL1       -0.0042
     28 C           4.9121   42.7444    8.9524 C.ar    1  UNL1        0.0026
@<TRIPOS>BOND
     1    19    18    1
     2    19    17    1
     3    19    20    1
     4     1    17    1
     5     2     3   ar
     6     4     5   ar
     7     5     9    1
     8     7    11    1
     9    12    13   ar
    10    14    15   ar
    11    16    11   ar
    12     6     1   ar
    13    20    22    1
    14    23    24   ar
    15    25    27   ar
    16    26    25    1
    17    28    22   ar
    18     9     7   am
    19     1     2   ar
    20     3     4   ar
    21     5     6   ar
    22     7     8    2
    23    11    12   ar
    24    13    14   ar
    25    15    16   ar
    26    20    21    2
    27    22    23   ar
    28    24    25   ar
    29    27    28   ar
    30     9    10    1
@<TRIPOS>MOLECULE
MolPort-001-571-316 CSSS00132419744 MCULE-7383928779 PubChem-4029104
 28 30 0 0 0
SMALL
GASTEIGER

@<TRIPOS>ATOM
      1 C           8.6607   40.7653    6.7801 C.ar    1  UNL1        0.1403
      2 C           8.4164   39.7861    5.8041 C.ar    1  UNL1        0.0370
      3 C           9.3663   39.5287    4.8132 C.ar    1  UNL1        0.0044
      4 C          10.5641   40.2472    4.7922 C.ar    1  UNL1        0.0149
      5 C          10.8204   41.2281    5.7619 C.ar    1  UNL1        0.0536
      6 C           9.8629   41.4795    6.7507 C.ar    1  UNL1        0.0516
      7 C          13.0324   42.0048    6.8085 C.2     1  UNL1        0.2495
      8 O          12.8892   41.3064    7.8489 O.2     1  UNL1       -0.2698
      9 N          12.0376   41.9861    5.7730 N.am    1  UNL1       -0.2803
     10 H          12.2096   42.5540    4.9873 H       1  UNL1        0.1552
     11 C          14.2312   42.8477    6.6540 C.ar    1  UNL1        0.0537
     12 C          15.4029   42.5508    7.3657 C.ar    1  UNL1        0.0045
     13 C          16.5407   43.3499    7.2199 C.ar    1  UNL1        0.0001
     14 C          16.5153   44.4520    6.3613 C.ar    1  UNL1        0.0000
     15 C          15.3524   44.7554    5.6483 C.ar    1  UNL1        0.0001
     16 C          14.2145   43.9563    5.7940 C.ar    1  UNL1        0.0045
     17 O           7.7291   41.0487    7.7828 O.3     1  UNL1       -0.4713
     18 C           9.2000   42.3870    9.1412 C.3     1  UNL1        0.0559
     19 C           8.1084   41.3341    9.1234 C.3     1  UNL1        0.2267
     20 C           6.9170   41.7814    9.9128 C.2     1  UNL1        0.2127
     21 O           6.7738   41.3768   11.0993 O.2     1  UNL1       -0.2875
     22 C           5.9261   42.7019    9.3223 C.ar    1  UNL1        0.0383
     23 C           6.3509   43.8193    8.5877 C.ar    1  UNL1        0.0026
     24 C           5.4165   44.6924    8.0231 C.ar    1  UNL1       -0.0042
     25 C           4.0495   44.4550    8.1879 C.ar    1  UNL1       -0.0218
     26 C           3.0562   45.3829    7.5875 C.3     1  UNL1        0.0310
     27 C           3.6163   43.3448    8.9175 C.ar    1  UNL1       -0.0042
     28 C           4.5507   42.4719    9.4822 C.ar    1  UNL1        0.0026
@<TRIPOS>BOND
     1    19    18    1
     2    19    17    1
     3    19    20    1
     4     1    17    1
     5     2     3   ar
     6     4     5   ar
     7     5     9    1
     8     7    11    1
     9    12    13   ar
    10    14    15   ar
    11    16    11   ar
    12     6     1   ar
    13    20    22    1
    14    23    24   ar
    15    25    27   ar
    16    26    25    1
    17    28    22   ar
    18     9     7   am
    19     1     2   ar
    20     3     4   ar
    21     5     6   ar
    22     7     8    2
    23    11    12   ar
    24    13    14   ar
    25    15    16   ar
    26    20    21    2
    27    22    23   ar
    28    24    25   ar
    29    27    28   ar
    30     9    10    1
@<TRIPOS>MOLECULE
MolPort-001-571-316 CSSS00132419744 MCULE-7383928779 PubChem-4029104
 28 30 0 0 0
SMALL
GASTEIGER

@<TRIPOS>ATOM
      1 C          10.7477   40.7830   10.1893 C.ar    1  UNL1        0.1403
      2 C          10.0154   39.9131    9.3657 C.ar    1  UNL1        0.0370
      3 C          10.3928   39.7204    8.0351 C.ar    1  UNL1        0.0044
      4 C          11.5028   40.3946    7.5206 C.ar    1  UNL1        0.0149
      5 C          12.2431   41.2663    8.3331 C.ar    1  UNL1        0.0536
      6 C          11.8576   41.4535    9.6651 C.ar    1  UNL1        0.0516
      7 C          14.7671   41.6812    8.1119 C.2     1  UNL1        0.2495
      8 O          15.0826   40.7106    8.8528 O.2     1  UNL1       -0.2698
      9 N          13.3880   41.9759    7.8411 N.am    1  UNL1       -0.2803
     10 H          13.2095   42.7469    7.2555 H       1  UNL1        0.1552
     11 C          15.8230   42.5207    7.5187 C.ar    1  UNL1        0.0537
     12 C          17.1028   42.5600    8.0916 C.ar    1  UNL1        0.0045
     13 C          18.1051   43.3562    7.5298 C.ar    1  UNL1        0.0001
     14 C          17.8353   44.1191    6.3906 C.ar    1  UNL1        0.0000
     15 C          16.5633   44.0862    5.8131 C.ar    1  UNL1        0.0001
     16 C          15.5608   43.2900    6.3749 C.ar    1  UNL1        0.0045
     17 O          10.3938   40.9998   11.5240 O.3     1  UNL1       -0.4713
     18 C           8.9888   41.2395   13.4653 C.3     1  UNL1        0.0559
     19 C           9.0420   41.0210   11.9652 C.3     1  UNL1        0.2267
     20 C           8.2788   42.0856   11.2395 C.2     1  UNL1        0.2127
     21 O           8.8198   43.2080   11.0409 O.2     1  UNL1       -0.2875
     22 C           6.9142   41.8255   10.7414 C.ar    1  UNL1        0.0383
     23 C           6.5417   42.2414    9.4542 C.ar    1  UNL1        0.0026
     24 C           5.2514   41.9945    8.9761 C.ar    1  UNL1       -0.0042
     25 C           4.3232   41.3291    9.7811 C.ar    1  UNL1       -0.0218
     26 C           2.9519   41.0663    9.2727 C.3     1  UNL1        0.0310
     27 C           4.6846   40.9106   11.0643 C.ar    1  UNL1       -0.0042
     28 C           5.9746   41.1578   11.5424 C.ar    1  UNL1        0.0026
@<TRIPOS>BOND
     1    19    18    1
     2    19    17    1
     3    19    20    1
     4     1    17    1
     5     2     3   ar
     6     4     5   ar
     7     5     9    1
     8     7    11    1
     9    12    13   ar
    10    14    15   ar
    11    16    11   ar
    12     6     1   ar
    13    20    22    1
    14    23    24   ar
    15    25    27   ar
    16    26    25    1
    17    28    22   ar
    18     9     7   am
    19     1     2   ar
    20     3     4   ar
    21     5     6   ar
    22     7     8    2
    23    11    12   ar
    24    13    14   ar
    25    15    16   ar
    26    20    21    2
    27    22    23   ar
    28    24    25   ar
    29    27    28   ar
    30     9    10    1
@<TRIPOS>MOLECULE
MolPort-001-571-316 CSSS00132419744 MCULE-7383928779 PubChem-4029104
 28 30 0 0 0
SMALL
GASTEIGER

@<TRIPOS>ATOM
      1 C          10.9063   41.3411    9.2178 C.ar    1  UNL1        0.1403
      2 C          11.5053   42.5500    9.6064 C.ar    1  UNL1        0.0370
      3 C          10.7149   43.6296   10.0063 C.ar    1  UNL1        0.0044
      4 C           9.3234   43.5075   10.0205 C.ar    1  UNL1        0.0149
      5 C           8.7126   42.3048    9.6347 C.ar    1  UNL1        0.0536
      6 C           9.5123   41.2285    9.2353 C.ar    1  UNL1        0.0516
      7 C           6.4588   41.8113   10.7611 C.2     1  UNL1        0.2495
      8 O           6.9663   41.6307   11.9014 O.2     1  UNL1       -0.2698
      9 N           7.2879   42.1414    9.6360 N.am    1  UNL1       -0.2803
     10 H           6.8296   42.2691    8.7741 H       1  UNL1        0.1552
     11 C           5.0019   41.6823   10.5813 C.ar    1  UNL1        0.0537
     12 C           4.4791   41.1397    9.3981 C.ar    1  UNL1        0.0045
     13 C           3.0971   41.0171    9.2265 C.ar    1  UNL1        0.0001
     14 C           2.2275   41.4360   10.2368 C.ar    1  UNL1        0.0000
     15 C           2.7394   41.9778   11.4188 C.ar    1  UNL1        0.0001
     16 C           4.1214   42.1005   11.5906 C.ar    1  UNL1        0.0045
     17 O          11.6692   40.2434    8.8093 O.3     1  UNL1       -0.4713
     18 C          10.9437   39.5093    6.6334 C.3     1  UNL1        0.0559
     19 C          12.0883   40.0593    7.4629 C.3     1  UNL1        0.2267
     20 C          12.5896   41.3520    6.8969 C.2     1  UNL1        0.2127
     21 O          11.8386   42.0295    6.1427 O.2     1  UNL1       -0.2875
     22 C          13.9405   41.8446    7.2291 C.ar    1  UNL1        0.0383
     23 C          14.7071   41.1958    8.2088 C.ar    1  UNL1        0.0026
     24 C          15.9887   41.6561    8.5248 C.ar    1  UNL1       -0.0042
     25 C          16.5145   42.7689    7.8632 C.ar    1  UNL1       -0.0218
     26 C          17.8769   43.2580    8.1989 C.3     1  UNL1        0.0310
     27 C          15.7591   43.4217    6.8857 C.ar    1  UNL1       -0.0042
     28 C          14.4776   42.9615    6.5700 C.ar    1  UNL1        0.0026
@<TRIPOS>BOND
     1    19    18    1
     2    19    17    1
     3    19    20    1
     4     1    17    1
     5     2     3   ar
     6     4     5   ar
     7     5     9    1
     8     7    11    1
     9    12    13   ar
    10    14    15   ar
    11    16    11   ar
    12     6     1   ar
    13    20    22    1
    14    23    24   ar
    15    25    27   ar
    16    26    25    1
    17    28    22   ar
    18     9     7   am
    19     1     2   ar
    20     3     4   ar
    21     5     6   ar
    22     7     8    2
    23    11    12   ar
    24    13    14   ar
    25    15    16   ar
    26    20    21    2
    27    22    23   ar
    28    24    25   ar
    29    27    28   ar
    30     9    10    1
@<TRIPOS>MOLECULE
MolPort-001-571-316 CSSS00132419744 MCULE-7383928779 PubChem-4029104
 28 30 0 0 0
SMALL
GASTEIGER

@<TRIPOS>ATOM
      1 C          11.2094   38.6477    8.6098 C.ar    1  UNL1        0.1403
      2 C           9.9123   39.1742    8.5025 C.ar    1  UNL1        0.0370
      3 C           9.7237   40.5134    8.1543 C.ar    1  UNL1        0.0044
      4 C          10.8286   41.3329    7.9112 C.ar    1  UNL1        0.0149
      5 C          12.1298   40.8189    8.0148 C.ar    1  UNL1        0.0536
      6 C          12.3094   39.4761    8.3645 C.ar    1  UNL1        0.0516
      7 C          14.6362   41.3496    8.1826 C.2     1  UNL1        0.2495
      8 O          14.9070   40.2999    8.8272 O.2     1  UNL1       -0.2698
      9 N          13.2883   41.6287    7.7732 N.am    1  UNL1       -0.2803
     10 H          13.1444   42.4647    7.2736 H       1  UNL1        0.1552
     11 C          15.7124   42.2985    7.8467 C.ar    1  UNL1        0.0537
     12 C          15.4866   43.3274    6.9204 C.ar    1  UNL1        0.0045
     13 C          16.5070   44.2280    6.6009 C.ar    1  UNL1        0.0001
     14 C          17.7610   44.1065    7.2053 C.ar    1  UNL1        0.0000
     15 C          17.9950   43.0846    8.1292 C.ar    1  UNL1        0.0001
     16 C          16.9746   42.1840    8.4488 C.ar    1  UNL1        0.0045
     17 O          11.4317   37.3128    8.9595 O.3     1  UNL1       -0.4713
     18 C          10.9986   36.0210   10.9453 C.3     1  UNL1        0.0559
     19 C          11.9715   36.9295   10.2181 C.3     1  UNL1        0.2267
     20 C          13.2959   36.2568   10.0284 C.2     1  UNL1        0.2127
     21 O          13.3307   35.0639    9.6189 O.2     1  UNL1       -0.2875
     22 C          14.5529   36.9818   10.2972 C.ar    1  UNL1        0.0383
     23 C          15.6691   36.7901    9.4689 C.ar    1  UNL1        0.0026
     24 C          16.8611   37.4770    9.7168 C.ar    1  UNL1       -0.0042
     25 C          16.9467   38.3618   10.7948 C.ar    1  UNL1       -0.0218
     26 C          18.2136   39.0922   11.0581 C.3     1  UNL1        0.0310
     27 C          15.8406   38.5599   11.6254 C.ar    1  UNL1       -0.0042
     28 C          14.6488   37.8728   11.3775 C.ar    1  UNL1        0.0026
@<TRIPOS>BOND
     1    19    18    1
     2    19    17    1
     3    19    20    1
     4     1    17    1
     5     2     3   ar
     6     4     5   ar
     7     5     9    1
     8     7    11    1
     9    12    13   ar
    10    14    15   ar
    11    16    11   ar
    12     6     1   ar
    13    20    22    1
    14    23    24   ar
    15    25    27   ar
    16    26    25    1
    17    28    22   ar
    18     9     7   am
    19     1     2   ar
    20     3     4   ar
    21     5     6   ar
    22     7     8    2
    23    11    12   ar
    24    13    14   ar
    25    15    16   ar
    26    20    21    2
    27    22    23   ar
    28    24    25   ar
    29    27    28   ar
    30     9    10    1
@<TRIPOS>MOLECULE
MolPort-001-571-316 CSSS00132419744 MCULE-7383928779 PubChem-4029104
 28 30 0 0 0
SMALL
GASTEIGER

@<TRIPOS>ATOM
      1 C          11.9299   39.5226    9.7413 C.ar    1  UNL1        0.1403
      2 C          12.5356   40.0007   10.9142 C.ar    1  UNL1        0.0370
      3 C          13.6283   39.3282   11.4656 C.ar    1  UNL1        0.0044
      4 C          14.1214   38.1758   10.8489 C.ar    1  UNL1        0.0149
      5 C          13.5252   37.6879    9.6765 C.ar    1  UNL1        0.0536
      6 C          12.4308   38.3679    9.1311 C.ar    1  UNL1        0.0516
      7 C          15.3318   36.2734    8.5246 C.2     1  UNL1        0.2495
      8 O          16.2281   37.1513    8.6528 O.2     1  UNL1       -0.2698
      9 N          14.0028   36.5086    9.0150 N.am    1  UNL1       -0.2803
     10 H          13.3503   35.7833    8.8831 H       1  UNL1        0.1552
     11 C          15.6509   34.9946    7.8653 C.ar    1  UNL1        0.0537
     12 C          15.4855   33.7826    8.5519 C.ar    1  UNL1        0.0045
     13 C          15.7881   32.5690    7.9275 C.ar    1  UNL1        0.0001
     14 C          16.2584   32.5582    6.6117 C.ar    1  UNL1        0.0000
     15 C          16.4263   33.7607    5.9201 C.ar    1  UNL1        0.0001
     16 C          16.1237   34.9745    6.5444 C.ar    1  UNL1        0.0045
     17 O          10.8331   40.1708    9.1664 O.3     1  UNL1       -0.4713
     18 C          11.3809   42.5159    9.1428 C.3     1  UNL1        0.0559
     19 C          10.9699   41.3077    8.3230 C.3     1  UNL1        0.2267
     20 C          11.9652   41.0296    7.2393 C.2     1  UNL1        0.2127
     21 O          11.6983   40.1631    6.3618 O.2     1  UNL1       -0.2875
     22 C          13.2396   41.7715    7.1803 C.ar    1  UNL1        0.0383
     23 C          14.3252   41.3735    7.9750 C.ar    1  UNL1        0.0026
     24 C          15.5358   42.0705    7.9204 C.ar    1  UNL1       -0.0042
     25 C          15.6709   43.1709    7.0701 C.ar    1  UNL1       -0.0218
     26 C          16.9578   43.9116    7.0118 C.3     1  UNL1        0.0310
     27 C          14.5957   43.5750    6.2743 C.ar    1  UNL1       -0.0042
     28 C          13.3853   42.8781    6.3292 C.ar    1  UNL1        0.0026
@<TRIPOS>BOND
     1    19    18    1
     2    19    17    1
     3    19    20    1
     4     1    17    1
     5     2     3   ar
     6     4     5   ar
     7     5     9    1
     8     7    11    1
     9    12    13   ar
    10    14    15   ar
    11    16    11   ar
    12     6     1   ar
    13    20    22    1
    14    23    24   ar
    15    25    27   ar
    16    26    25    1
    17    28    22   ar
    18     9     7   am
    19     1     2   ar
    20     3     4   ar
    21     5     6   ar
    22     7     8    2
    23    11    12   ar
    24    13    14   ar
    25    15    16   ar
    26    20    21    2
    27    22    23   ar
    28    24    25   ar
    29    27    28   ar
    30     9    10    1
@<TRIPOS>MOLECULE
MolPort-001-571-316 CSSS00132419744 MCULE-7383928779 PubChem-4029104
 28 30 0 0 0
SMALL
GASTEIGER

@<TRIPOS>ATOM
      1 C           9.3145   42.1453    8.9192 C.ar    1  UNL1        0.1403
      2 C           9.2552   42.7504   10.1847 C.ar    1  UNL1        0.0370
      3 C           9.8795   42.1510   11.2807 C.ar    1  UNL1        0.0044
      4 C          10.5660   40.9452   11.1185 C.ar    1  UNL1        0.0149
      5 C          10.6329   40.3305    9.8592 C.ar    1  UNL1        0.0536
      6 C          10.0042   40.9381    8.7668 C.ar    1  UNL1        0.0516
      7 C          12.7476   38.8834    9.6994 C.2     1  UNL1        0.2495
      8 O          13.5306   39.8423    9.9406 O.2     1  UNL1       -0.2698
      9 N          11.3277   39.0930    9.6534 N.am    1  UNL1       -0.2803
     10 H          10.7724   38.3034    9.4600 H       1  UNL1        0.1552
     11 C          13.2946   37.5357    9.4626 C.ar    1  UNL1        0.0537
     12 C          14.3973   37.3574    8.6141 C.ar    1  UNL1        0.0045
     13 C          14.9168   36.0793    8.3886 C.ar    1  UNL1        0.0001
     14 C          14.3376   34.9698    9.0100 C.ar    1  UNL1        0.0000
     15 C          13.2389   35.1380    9.8568 C.ar    1  UNL1        0.0001
     16 C          12.7192   36.4161   10.0824 C.ar    1  UNL1        0.0045
     17 O           8.6975   42.7182    7.8035 O.3     1  UNL1       -0.4713
     18 C           7.2055   40.8302    7.7082 C.3     1  UNL1        0.0559
     19 C           7.4387   42.2756    7.3117 C.3     1  UNL1        0.2267
     20 C           6.3439   43.1577    7.8273 C.2     1  UNL1        0.2127
     21 O           6.1536   44.2844    7.2921 O.2     1  UNL1       -0.2875
     22 C           5.4795   42.7126    8.9375 C.ar    1  UNL1        0.0383
     23 C           6.0318   42.0295   10.0316 C.ar    1  UNL1        0.0026
     24 C           5.2181   41.6087   11.0876 C.ar    1  UNL1       -0.0042
     25 C           3.8454   41.8681   11.0585 C.ar    1  UNL1       -0.0218
     26 C           2.9805   41.4211   12.1811 C.3     1  UNL1        0.0310
     27 C           3.2859   42.5480    9.9735 C.ar    1  UNL1       -0.0042
     28 C           4.0995   42.9685    8.9176 C.ar    1  UNL1        0.0026
@<TRIPOS>BOND
     1    19    18    1
     2    19    17    1
     3    19    20    1
     4     1    17    1
     5     2     3   ar
     6     4     5   ar
     7     5     9    1
     8     7    11    1
     9    12    13   ar
    10    14    15   ar
    11    16    11   ar
    12     6     1   ar
    13    20    22    1
    14    23    24   ar
    15    25    27   ar
    16    26    25    1
    17    28    22   ar
    18     9     7   am
    19     1     2   ar
    20     3     4   ar
    21     5     6   ar
    22     7     8    2
    23    11    12   ar
    24    13    14   ar
    25    15    16   ar
    26    20    21    2
    27    22    23   ar
    28    24    25   ar
    29    27    28   ar
    30     9    10    1
