@<TRIPOS>MOLECULE
MolPort-020-295-087 MCULE-2160186047 PubChem-110267185
 32 35 0 0 0
SMALL
GASTEIGER

@<TRIPOS>ATOM
      1 C          15.9113   39.9448   10.0762 C.ar    1  UNL1        0.2214
      2 C          15.4889   38.5710   11.9575 C.ar    1  UNL1        0.1031
      3 C          14.1228   38.6023   11.6878 C.ar    1  UNL1        0.0356
      4 C          13.6789   39.3315   10.5794 C.ar    1  UNL1        0.0647
      5 N          16.3548   39.2388   11.1521 N.ar    1  UNL1       -0.2120
      6 N          14.5809   39.9846    9.8003 N.ar    1  UNL1       -0.2179
      7 C          12.2260   39.4051   10.2331 C.3     1  UNL1        0.0603
      8 C          11.9004   38.5227    9.0250 C.3     1  UNL1        0.0094
      9 C          10.4121   38.6018    8.6933 C.3     1  UNL1        0.0220
     10 C          10.0197   40.0501    8.4215 C.3     1  UNL1        0.0937
     11 C          11.7928   40.8515    9.9855 C.3     1  UNL1        0.0996
     12 C           9.4789   41.8093   10.1698 C.2     1  UNL1        0.2490
     13 N          10.3944   40.8774    9.5658 N.am    1  UNL1       -0.2757
     14 O           9.9408   42.8170   10.7729 O.2     1  UNL1       -0.2699
     15 C           8.0096   41.6218   10.1206 C.ar    1  UNL1        0.0537
     16 C           7.2476   41.5152   11.2943 C.ar    1  UNL1        0.0068
     17 C           5.8593   41.3668   11.2301 C.ar    1  UNL1        0.0298
     18 C           5.2178   41.3309    9.9898 C.ar    1  UNL1        0.1401
     19 C           5.9639   41.4490    8.8147 C.ar    1  UNL1        0.0298
     20 C           7.3523   41.5972    8.8805 C.ar    1  UNL1        0.0068
     21 F           3.8725   41.1867    9.9266 F       1  UNL1       -0.2042
     22 N          16.8227   40.6500    9.2249 N.pl3   1  UNL1       -0.2678
     23 H          17.7241   40.2670    9.1250 H       1  UNL1        0.1565
     24 C          15.0854   43.1619    7.1134 C.ar    1  UNL1        0.1331
     25 C          17.1774   44.0282    7.7979 C.ar    1  UNL1        0.2012
     26 C          16.5501   41.8582    8.5050 C.ar    1  UNL1        0.1389
     27 C          15.3447   41.9790    7.8145 C.ar    1  UNL1        0.0686
     28 N          16.0072   44.1602    7.1206 N.ar    1  UNL1       -0.2091
     29 N          17.4421   42.8854    8.4826 N.ar    1  UNL1       -0.2088
     30 C          12.7749   42.3786    6.4275 C.3     1  UNL1        0.1096
     31 N          13.8661   43.3395    6.3885 N.pl3   1  UNL1       -0.3166
     32 H          13.7602   44.1488    5.8380 H       1  UNL1        0.1482
@<TRIPOS>BOND
     1    30    31    1
     2    25    28   ar
     3    26    29   ar
     4    26    22    1
     5    27    24   ar
     6     1     6   ar
     7     2     5   ar
     8     3     4   ar
     9     7     4    1
    10     7     8    1
    11     8     9    1
    12     9    10    1
    13    10    13    1
    14    11    13    1
    15    11     7    1
    16    12    15    1
    17    16    17   ar
    18    18    19   ar
    19    18    21    1
    20    20    15   ar
    21    31    24    1
    22    22     1    1
    23    13    12   am
    24    24    28   ar
    25    25    29   ar
    26    26    27   ar
    27     1     5   ar
    28     2     3   ar
    29     4     6   ar
    30    12    14    2
    31    15    16   ar
    32    17    18   ar
    33    19    20   ar
    34    31    32    1
    35    22    23    1
@<TRIPOS>MOLECULE
MolPort-020-295-087 MCULE-2160186047 PubChem-110267185
 32 35 0 0 0
SMALL
GASTEIGER

@<TRIPOS>ATOM
      1 C          16.8264   40.0656   10.0582 C.ar    1  UNL1        0.2214
      2 C          16.5331   38.5071   11.8161 C.ar    1  UNL1        0.1031
      3 C          15.1635   38.4659   11.5663 C.ar    1  UNL1        0.0356
      4 C          14.6508   39.2559   10.5316 C.ar    1  UNL1        0.0647
      5 N          17.3365   39.3015   11.0626 N.ar    1  UNL1       -0.2120
      6 N          15.4917   40.0359    9.8026 N.ar    1  UNL1       -0.2179
      7 C          13.1903   39.2572   10.2102 C.3     1  UNL1        0.0603
      8 C          12.6341   37.8317   10.1605 C.3     1  UNL1        0.0094
      9 C          11.1409   37.8533    9.8424 C.3     1  UNL1        0.0220
     10 C          10.9056   38.5678    8.5159 C.3     1  UNL1        0.0937
     11 C          12.9171   39.9961    8.8986 C.3     1  UNL1        0.0996
     12 C          10.7719   41.0791    8.1698 C.2     1  UNL1        0.2490
     13 N          11.4969   39.9026    8.5721 N.am    1  UNL1       -0.2757
     14 O          11.4157   42.0827    7.7562 O.2     1  UNL1       -0.2699
     15 C           9.2936   41.1603    8.2358 C.ar    1  UNL1        0.0537
     16 C           8.4967   40.8853    7.1138 C.ar    1  UNL1        0.0068
     17 C           7.1027   40.9392    7.2010 C.ar    1  UNL1        0.0298
     18 C           6.4913   41.2620    8.4147 C.ar    1  UNL1        0.1401
     19 C           7.2733   41.5252    9.5418 C.ar    1  UNL1        0.0298
     20 C           8.6673   41.4710    9.4530 C.ar    1  UNL1        0.0068
     21 F           5.1405   41.3150    8.4998 F       1  UNL1       -0.2042
     22 N          17.6717   40.9044    9.2617 N.pl3   1  UNL1       -0.2678
     23 H          18.6277   40.6710    9.2315 H       1  UNL1        0.1565
     24 C          15.5591   43.2356    7.2897 C.ar    1  UNL1        0.1331
     25 C          17.7264   44.1536    7.5256 C.ar    1  UNL1        0.2012
     26 C          17.2615   42.0495    8.5050 C.ar    1  UNL1        0.1389
     27 C          15.9527   42.1141    8.0283 C.ar    1  UNL1        0.0686
     28 N          16.4544   44.2303    7.0548 N.ar    1  UNL1       -0.2091
     29 N          18.1219   43.0707    8.2438 N.ar    1  UNL1       -0.2088
     30 C          13.9145   44.0737    5.5532 C.3     1  UNL1        0.1096
     31 N          14.2298   43.3539    6.7771 N.pl3   1  UNL1       -0.3166
     32 H          13.4946   42.9289    7.2751 H       1  UNL1        0.1482
@<TRIPOS>BOND
     1    30    31    1
     2    25    28   ar
     3    26    29   ar
     4    26    22    1
     5    27    24   ar
     6     1     6   ar
     7     2     5   ar
     8     3     4   ar
     9     7     4    1
    10     7     8    1
    11     8     9    1
    12     9    10    1
    13    10    13    1
    14    11    13    1
    15    11     7    1
    16    12    15    1
    17    16    17   ar
    18    18    19   ar
    19    18    21    1
    20    20    15   ar
    21    31    24    1
    22    22     1    1
    23    13    12   am
    24    24    28   ar
    25    25    29   ar
    26    26    27   ar
    27     1     5   ar
    28     2     3   ar
    29     4     6   ar
    30    12    14    2
    31    15    16   ar
    32    17    18   ar
    33    19    20   ar
    34    31    32    1
    35    22    23    1
@<TRIPOS>MOLECULE
MolPort-020-295-087 MCULE-2160186047 PubChem-110267185
 32 35 0 0 0
SMALL
GASTEIGER

@<TRIPOS>ATOM
      1 C          14.0263   40.5283    9.4727 C.ar    1  UNL1        0.2214
      2 C          13.4281   39.4054   11.4692 C.ar    1  UNL1        0.1031
      3 C          12.0777   39.5767   11.1744 C.ar    1  UNL1        0.0356
      4 C          11.7328   40.2436    9.9938 C.ar    1  UNL1        0.0647
      5 N          14.3738   39.8813   10.6187 N.ar    1  UNL1       -0.2120
      6 N          12.7124   40.7031    9.1715 N.ar    1  UNL1       -0.2179
      7 C          10.3018   40.4598    9.6173 C.3     1  UNL1        0.0603
      8 C          10.1716   40.8528    8.1432 C.3     1  UNL1        0.0094
      9 C           8.7042   41.0585    7.7744 C.3     1  UNL1        0.0220
     10 C           8.0912   42.1286    8.6714 C.3     1  UNL1        0.0937
     11 C           9.6480   41.5068   10.5214 C.3     1  UNL1        0.0996
     12 C           7.2033   41.7829   11.0243 C.2     1  UNL1        0.2490
     13 N           8.2814   41.7558   10.0712 N.am    1  UNL1       -0.2757
     14 O           7.4709   41.9536   12.2458 O.2     1  UNL1       -0.2699
     15 C           5.7874   41.6043   10.6247 C.ar    1  UNL1        0.0537
     16 C           4.9917   40.5948   11.1880 C.ar    1  UNL1        0.0068
     17 C           3.6502   40.4582   10.8204 C.ar    1  UNL1        0.0298
     18 C           3.0886   41.3357    9.8900 C.ar    1  UNL1        0.1401
     19 C           3.8668   42.3526    9.3318 C.ar    1  UNL1        0.0298
     20 C           5.2084   42.4879    9.7004 C.ar    1  UNL1        0.0068
     21 F           1.7887   41.2037    9.5328 F       1  UNL1       -0.2042
     22 N          15.0220   41.0311    8.5736 N.pl3   1  UNL1       -0.2678
     23 H          15.9361   40.6822    8.6829 H       1  UNL1        0.1565
     24 C          15.6688   43.7509    6.1301 C.ar    1  UNL1        0.1331
     25 C          13.4255   43.0301    5.9222 C.ar    1  UNL1        0.2012
     26 C          14.8171   41.9921    7.5311 C.ar    1  UNL1        0.1389
     27 C          15.8764   42.8144    7.1490 C.ar    1  UNL1        0.0686
     28 N          14.4483   43.8380    5.5394 N.ar    1  UNL1       -0.2091
     29 N          13.6130   42.1167    6.9100 N.ar    1  UNL1       -0.2088
     30 C          18.1280   44.2743    5.8120 C.3     1  UNL1        0.1096
     31 N          16.7195   44.6190    5.6987 N.pl3   1  UNL1       -0.3166
     32 H          16.4788   45.4897    5.3072 H       1  UNL1        0.1482
@<TRIPOS>BOND
     1    30    31    1
     2    25    28   ar
     3    26    29   ar
     4    26    22    1
     5    27    24   ar
     6     1     6   ar
     7     2     5   ar
     8     3     4   ar
     9     7     4    1
    10     7     8    1
    11     8     9    1
    12     9    10    1
    13    10    13    1
    14    11    13    1
    15    11     7    1
    16    12    15    1
    17    16    17   ar
    18    18    19   ar
    19    18    21    1
    20    20    15   ar
    21    31    24    1
    22    22     1    1
    23    13    12   am
    24    24    28   ar
    25    25    29   ar
    26    26    27   ar
    27     1     5   ar
    28     2     3   ar
    29     4     6   ar
    30    12    14    2
    31    15    16   ar
    32    17    18   ar
    33    19    20   ar
    34    31    32    1
    35    22    23    1
@<TRIPOS>MOLECULE
MolPort-020-295-087 MCULE-2160186047 PubChem-110267185
 32 35 0 0 0
SMALL
GASTEIGER

@<TRIPOS>ATOM
      1 C          14.8123   40.1483    9.7910 C.ar    1  UNL1        0.2214
      2 C          13.9807   39.0637   11.7242 C.ar    1  UNL1        0.1031
      3 C          12.6861   39.4694   11.4088 C.ar    1  UNL1        0.0356
      4 C          12.4897   40.2302   10.2511 C.ar    1  UNL1        0.0647
      5 N          15.0156   39.4080   10.9151 N.ar    1  UNL1       -0.2120
      6 N          13.5546   40.5515    9.4702 N.ar    1  UNL1       -0.2179
      7 C          11.1255   40.6968    9.8543 C.3     1  UNL1        0.0603
      8 C          11.1975   41.6867    8.6884 C.3     1  UNL1        0.0094
      9 C           9.7960   42.1433    8.2901 C.3     1  UNL1        0.0220
     10 C           9.0986   42.7764    9.4894 C.3     1  UNL1        0.0937
     11 C          10.3862   41.3092   11.0457 C.3     1  UNL1        0.0996
     12 C           7.9046   41.5361   11.3549 C.2     1  UNL1        0.2490
     13 N           9.0962   41.8316   10.6038 N.am    1  UNL1       -0.2757
     14 O           8.0155   41.1512   12.5517 O.2     1  UNL1       -0.2699
     15 C           6.5484   41.6550   10.7690 C.ar    1  UNL1        0.0537
     16 C           6.3325   42.3347    9.5604 C.ar    1  UNL1        0.0068
     17 C           5.0512   42.4133    9.0076 C.ar    1  UNL1        0.0298
     18 C           3.9731   41.8056    9.6554 C.ar    1  UNL1        0.1401
     19 C           4.1774   41.1152   10.8523 C.ar    1  UNL1        0.0298
     20 C           5.4594   41.0376   11.4041 C.ar    1  UNL1        0.0068
     21 F           2.7310   41.8817    9.1205 F       1  UNL1       -0.2042
     22 N          15.9023   40.5126    8.9357 N.pl3   1  UNL1       -0.2678
     23 H          16.4842   39.7829    8.6223 H       1  UNL1        0.1565
     24 C          15.7049   43.7674    7.1599 C.ar    1  UNL1        0.1331
     25 C          17.6478   43.7291    8.5086 C.ar    1  UNL1        0.2012
     26 C          16.2281   41.8352    8.4920 C.ar    1  UNL1        0.1389
     27 C          15.3802   42.4757    7.5890 C.ar    1  UNL1        0.0686
     28 N          16.8311   44.3654    7.6291 N.ar    1  UNL1       -0.2091
     29 N          17.3448   42.4750    8.9334 N.ar    1  UNL1       -0.2088
     30 C          14.7995   44.1358    4.8217 C.3     1  UNL1        0.1096
     31 N          14.8715   44.4705    6.2353 N.pl3   1  UNL1       -0.3166
     32 H          14.3214   45.2150    6.5705 H       1  UNL1        0.1482
@<TRIPOS>BOND
     1    30    31    1
     2    25    28   ar
     3    26    29   ar
     4    26    22    1
     5    27    24   ar
     6     1     6   ar
     7     2     5   ar
     8     3     4   ar
     9     7     4    1
    10     7     8    1
    11     8     9    1
    12     9    10    1
    13    10    13    1
    14    11    13    1
    15    11     7    1
    16    12    15    1
    17    16    17   ar
    18    18    19   ar
    19    18    21    1
    20    20    15   ar
    21    31    24    1
    22    22     1    1
    23    13    12   am
    24    24    28   ar
    25    25    29   ar
    26    26    27   ar
    27     1     5   ar
    28     2     3   ar
    29     4     6   ar
    30    12    14    2
    31    15    16   ar
    32    17    18   ar
    33    19    20   ar
    34    31    32    1
    35    22    23    1
@<TRIPOS>MOLECULE
MolPort-020-295-087 MCULE-2160186047 PubChem-110267185
 32 35 0 0 0
SMALL
GASTEIGER

@<TRIPOS>ATOM
      1 C           8.3679   39.6766    5.5389 C.ar    1  UNL1        0.2214
      2 C           9.5640   38.6666    3.7630 C.ar    1  UNL1        0.1031
      3 C          10.7665   39.1204    4.2997 C.ar    1  UNL1        0.0356
      4 C          10.7288   39.8658    5.4831 C.ar    1  UNL1        0.0647
      5 N           8.3922   38.9507    4.3878 N.ar    1  UNL1       -0.2120
      6 N           9.5333   40.1263    6.0747 N.ar    1  UNL1       -0.2179
      7 C          11.9833   40.3818    6.1126 C.3     1  UNL1        0.0603
      8 C          12.1836   39.7906    7.5107 C.3     1  UNL1        0.0094
      9 C          13.4737   40.3197    8.1329 C.3     1  UNL1        0.0220
     10 C          13.4304   41.8428    8.1953 C.3     1  UNL1        0.0937
     11 C          11.9848   41.9111    6.1610 C.3     1  UNL1        0.0996
     12 C          13.9751   43.4363    6.2958 C.2     1  UNL1        0.2490
     13 N          13.1804   42.3764    6.8584 N.am    1  UNL1       -0.2757
     14 O          13.4610   44.1891    5.4231 O.2     1  UNL1       -0.2699
     15 C          15.3831   43.6691    6.6955 C.ar    1  UNL1        0.0537
     16 C          15.8197   43.4243    8.0065 C.ar    1  UNL1        0.0068
     17 C          17.1576   43.6224    8.3594 C.ar    1  UNL1        0.0298
     18 C          18.0746   44.0608    7.4012 C.ar    1  UNL1        0.1401
     19 C          17.6548   44.2955    6.0897 C.ar    1  UNL1        0.0298
     20 C          16.3165   44.0971    5.7384 C.ar    1  UNL1        0.0068
     21 F          19.3711   44.2534    7.7423 F       1  UNL1       -0.2042
     22 N           7.1330   39.9776    6.2001 N.pl3   1  UNL1       -0.2678
     23 H           6.4677   39.2536    6.2497 H       1  UNL1        0.1565
     24 C           5.9553   42.4717    8.6858 C.ar    1  UNL1        0.1331
     25 C           6.5312   43.5810    6.6774 C.ar    1  UNL1        0.2012
     26 C           6.7721   41.2293    6.7961 C.ar    1  UNL1        0.1389
     27 C           6.3061   41.2454    8.1102 C.ar    1  UNL1        0.0686
     28 N           6.0756   43.6121    7.9569 N.ar    1  UNL1       -0.2091
     29 N           6.8751   42.3976    6.1063 N.ar    1  UNL1       -0.2088
     30 C           5.6423   41.4706   10.9928 C.3     1  UNL1        0.1096
     31 N           5.4719   42.5465   10.0291 N.pl3   1  UNL1       -0.3166
     32 H           5.0024   43.3633   10.3148 H       1  UNL1        0.1482
@<TRIPOS>BOND
     1    30    31    1
     2    25    28   ar
     3    26    29   ar
     4    26    22    1
     5    27    24   ar
     6     1     6   ar
     7     2     5   ar
     8     3     4   ar
     9     7     4    1
    10     7     8    1
    11     8     9    1
    12     9    10    1
    13    10    13    1
    14    11    13    1
    15    11     7    1
    16    12    15    1
    17    16    17   ar
    18    18    19   ar
    19    18    21    1
    20    20    15   ar
    21    31    24    1
    22    22     1    1
    23    13    12   am
    24    24    28   ar
    25    25    29   ar
    26    26    27   ar
    27     1     5   ar
    28     2     3   ar
    29     4     6   ar
    30    12    14    2
    31    15    16   ar
    32    17    18   ar
    33    19    20   ar
    34    31    32    1
    35    22    23    1
@<TRIPOS>MOLECULE
MolPort-020-295-087 MCULE-2160186047 PubChem-110267185
 32 35 0 0 0
SMALL
GASTEIGER

@<TRIPOS>ATOM
      1 C          14.5431   40.2329    9.6029 C.ar    1  UNL1        0.2214
      2 C          13.9137   39.0212   11.5370 C.ar    1  UNL1        0.1031
      3 C          12.6570   39.6214   11.5178 C.ar    1  UNL1        0.0356
      4 C          12.3739   40.5426   10.5036 C.ar    1  UNL1        0.0647
      5 N          14.8300   39.3353   10.5851 N.ar    1  UNL1       -0.2120
      6 N          13.3209   40.8268    9.5712 N.ar    1  UNL1       -0.2179
      7 C          11.0439   41.2218   10.4245 C.3     1  UNL1        0.0603
      8 C          10.3877   41.3142   11.8047 C.3     1  UNL1        0.0094
      9 C           9.0371   42.0196   11.7063 C.3     1  UNL1        0.0220
     10 C           8.1337   41.2721   10.7314 C.3     1  UNL1        0.0937
     11 C          10.1236   40.5132    9.4286 C.3     1  UNL1        0.0996
     12 C           8.1591   41.4836    8.2018 C.2     1  UNL1        0.2490
     13 N           8.8087   41.1483    9.4416 N.am    1  UNL1       -0.2757
     14 O           8.5397   40.9186    7.1395 O.2     1  UNL1       -0.2699
     15 C           7.0652   42.4805    8.1245 C.ar    1  UNL1        0.0537
     16 C           7.1762   43.6250    7.3200 C.ar    1  UNL1        0.0068
     17 C           6.1236   44.5409    7.2368 C.ar    1  UNL1        0.0298
     18 C           4.9453   44.3168    7.9527 C.ar    1  UNL1        0.1401
     19 C           4.8178   43.1747    8.7468 C.ar    1  UNL1        0.0298
     20 C           5.8714   42.2598    8.8292 C.ar    1  UNL1        0.0068
     21 F           3.9250   45.2040    7.8731 F       1  UNL1       -0.2042
     22 N          15.5079   40.5658    8.5974 N.pl3   1  UNL1       -0.2678
     23 H          15.8277   39.8295    8.0275 H       1  UNL1        0.1565
     24 C          15.9472   43.9709    7.1838 C.ar    1  UNL1        0.1331
     25 C          17.6925   43.5301    8.7183 C.ar    1  UNL1        0.2012
     26 C          16.0526   41.8656    8.3406 C.ar    1  UNL1        0.1389
     27 C          15.4093   42.7027    7.4297 C.ar    1  UNL1        0.0686
     28 N          17.0766   44.3565    7.8333 N.ar    1  UNL1       -0.2091
     29 N          17.1814   42.2964    8.9664 N.ar    1  UNL1       -0.2088
     30 C          14.2297   44.4794    5.3909 C.3     1  UNL1        0.1096
     31 N          15.3287   44.8697    6.2599 N.pl3   1  UNL1       -0.3166
     32 H          15.6619   45.7948    6.2097 H       1  UNL1        0.1482
@<TRIPOS>BOND
     1    30    31    1
     2    25    28   ar
     3    26    29   ar
     4    26    22    1
     5    27    24   ar
     6     1     6   ar
     7     2     5   ar
     8     3     4   ar
     9     7     4    1
    10     7     8    1
    11     8     9    1
    12     9    10    1
    13    10    13    1
    14    11    13    1
    15    11     7    1
    16    12    15    1
    17    16    17   ar
    18    18    19   ar
    19    18    21    1
    20    20    15   ar
    21    31    24    1
    22    22     1    1
    23    13    12   am
    24    24    28   ar
    25    25    29   ar
    26    26    27   ar
    27     1     5   ar
    28     2     3   ar
    29     4     6   ar
    30    12    14    2
    31    15    16   ar
    32    17    18   ar
    33    19    20   ar
    34    31    32    1
    35    22    23    1
@<TRIPOS>MOLECULE
MolPort-020-295-087 MCULE-2160186047 PubChem-110267185
 32 35 0 0 0
SMALL
GASTEIGER

@<TRIPOS>ATOM
      1 C          13.8497   40.6012    9.4330 C.ar    1  UNL1        0.2214
      2 C          13.3776   39.4311   11.4363 C.ar    1  UNL1        0.1031
      3 C          12.0973   39.9787   11.4677 C.ar    1  UNL1        0.0356
      4 C          11.7210   40.8527   10.4421 C.ar    1  UNL1        0.0647
      5 N          14.2270   39.7498   10.4257 N.ar    1  UNL1       -0.2120
      6 N          12.6034   41.1435    9.4502 N.ar    1  UNL1       -0.2179
      7 C          10.3611   41.4741   10.4153 C.3     1  UNL1        0.0603
      8 C           9.7489   41.5247   11.8177 C.3     1  UNL1        0.0094
      9 C           8.3666   42.1716   11.7726 C.3     1  UNL1        0.0220
     10 C           7.4636   41.3949   10.8204 C.3     1  UNL1        0.0937
     11 C           9.4388   40.7357    9.4431 C.3     1  UNL1        0.0996
     12 C           7.3936   41.6315    8.2939 C.2     1  UNL1        0.2490
     13 N           8.0989   41.3129    9.5073 N.am    1  UNL1       -0.2757
     14 O           7.7618   41.0938    7.2132 O.2     1  UNL1       -0.2699
     15 C           6.2557   42.5806    8.2644 C.ar    1  UNL1        0.0537
     16 C           5.0693   42.3199    8.9671 C.ar    1  UNL1        0.0068
     17 C           4.0165   43.2390    8.9512 C.ar    1  UNL1        0.0298
     18 C           4.1431   44.4330    8.2374 C.ar    1  UNL1        0.1401
     19 C           5.3240   44.7099    7.5445 C.ar    1  UNL1        0.0298
     20 C           6.3760   43.7895    7.5612 C.ar    1  UNL1        0.0068
     21 F           3.1231   45.3241    8.2211 F       1  UNL1       -0.2042
     22 N          14.7438   40.9388    8.3657 N.pl3   1  UNL1       -0.2678
     23 H          15.5650   40.4015    8.2873 H       1  UNL1        0.1565
     24 C          15.4367   43.8510    6.1690 C.ar    1  UNL1        0.1331
     25 C          13.2007   43.1472    5.8525 C.ar    1  UNL1        0.2012
     26 C          14.5593   41.9820    7.4014 C.ar    1  UNL1        0.1389
     27 C          15.6244   42.8342    7.1119 C.ar    1  UNL1        0.0686
     28 N          14.2294   43.9850    5.5603 N.ar    1  UNL1       -0.2091
     29 N          13.3689   42.1560    6.7658 N.ar    1  UNL1       -0.2088
     30 C          17.8976   44.3718    5.8598 C.3     1  UNL1        0.1096
     31 N          16.4942   44.7529    5.8341 N.pl3   1  UNL1       -0.3166
     32 H          16.2620   45.6736    5.5742 H       1  UNL1        0.1482
@<TRIPOS>BOND
     1    30    31    1
     2    25    28   ar
     3    26    29   ar
     4    26    22    1
     5    27    24   ar
     6     1     6   ar
     7     2     5   ar
     8     3     4   ar
     9     7     4    1
    10     7     8    1
    11     8     9    1
    12     9    10    1
    13    10    13    1
    14    11    13    1
    15    11     7    1
    16    12    15    1
    17    16    17   ar
    18    18    19   ar
    19    18    21    1
    20    20    15   ar
    21    31    24    1
    22    22     1    1
    23    13    12   am
    24    24    28   ar
    25    25    29   ar
    26    26    27   ar
    27     1     5   ar
    28     2     3   ar
    29     4     6   ar
    30    12    14    2
    31    15    16   ar
    32    17    18   ar
    33    19    20   ar
    34    31    32    1
    35    22    23    1
@<TRIPOS>MOLECULE
MolPort-020-295-087 MCULE-2160186047 PubChem-110267185
 32 35 0 0 0
SMALL
GASTEIGER

@<TRIPOS>ATOM
      1 C          15.2522   41.3211    8.4404 C.ar    1  UNL1        0.2214
      2 C          14.4715   42.6892    6.6730 C.ar    1  UNL1        0.1031
      3 C          13.1593   42.3072    6.9418 C.ar    1  UNL1        0.0356
      4 C          12.9279   41.4106    7.9907 C.ar    1  UNL1        0.0647
      5 N          15.4895   42.1927    7.4222 N.ar    1  UNL1       -0.2120
      6 N          13.9769   40.9390    8.7147 N.ar    1  UNL1       -0.2179
      7 C          11.5433   40.9608    8.3327 C.3     1  UNL1        0.0603
      8 C          11.2798   39.5432    7.8178 C.3     1  UNL1        0.0094
      9 C           9.8665   39.0971    8.1854 C.3     1  UNL1        0.0220
     10 C           8.8493   40.0756    7.6081 C.3     1  UNL1        0.0937
     11 C          10.4987   41.9404    7.7940 C.3     1  UNL1        0.0996
     12 C           8.1573   42.2941    8.6297 C.2     1  UNL1        0.2490
     13 N           9.1598   41.4268    8.0692 N.am    1  UNL1       -0.2757
     14 O           8.3123   43.5436    8.5443 O.2     1  UNL1       -0.2699
     15 C           6.9523   41.7724    9.3170 C.ar    1  UNL1        0.0537
     16 C           6.9209   41.6067   10.7102 C.ar    1  UNL1        0.0068
     17 C           5.7666   41.1400   11.3452 C.ar    1  UNL1        0.0298
     18 C           4.6284   40.8410   10.5927 C.ar    1  UNL1        0.1401
     19 C           4.6430   41.0140    9.2067 C.ar    1  UNL1        0.0298
     20 C           5.7983   41.4807    8.5730 C.ar    1  UNL1        0.0068
     21 F           3.5095   40.3882   11.2073 F       1  UNL1       -0.2042
     22 N          16.3244   40.7960    9.2323 N.pl3   1  UNL1       -0.2678
     23 H          17.1899   41.2614    9.1729 H       1  UNL1        0.1565
     24 C          17.2935   37.7049   11.0469 C.ar    1  UNL1        0.1331
     25 C          15.0912   38.3132   11.6592 C.ar    1  UNL1        0.2012
     26 C          16.2599   39.6596   10.1023 C.ar    1  UNL1        0.1389
     27 C          17.3639   38.8129   10.1952 C.ar    1  UNL1        0.0686
     28 N          16.1591   37.4796   11.7599 N.ar    1  UNL1       -0.2091
     29 N          15.1457   39.3924   10.8362 N.ar    1  UNL1       -0.2088
     30 C          18.8956   35.9959   10.0796 C.3     1  UNL1        0.1096
     31 N          18.3956   36.8042   11.1806 N.pl3   1  UNL1       -0.3166
     32 H          18.8361   36.7275   12.0577 H       1  UNL1        0.1482
@<TRIPOS>BOND
     1    30    31    1
     2    25    28   ar
     3    26    29   ar
     4    26    22    1
     5    27    24   ar
     6     1     6   ar
     7     2     5   ar
     8     3     4   ar
     9     7     4    1
    10     7     8    1
    11     8     9    1
    12     9    10    1
    13    10    13    1
    14    11    13    1
    15    11     7    1
    16    12    15    1
    17    16    17   ar
    18    18    19   ar
    19    18    21    1
    20    20    15   ar
    21    31    24    1
    22    22     1    1
    23    13    12   am
    24    24    28   ar
    25    25    29   ar
    26    26    27   ar
    27     1     5   ar
    28     2     3   ar
    29     4     6   ar
    30    12    14    2
    31    15    16   ar
    32    17    18   ar
    33    19    20   ar
    34    31    32    1
    35    22    23    1
@<TRIPOS>MOLECULE
MolPort-020-295-087 MCULE-2160186047 PubChem-110267185
 32 35 0 0 0
SMALL
GASTEIGER

@<TRIPOS>ATOM
      1 C           3.9381   41.9963   10.5157 C.ar    1  UNL1        0.2214
      2 C           3.8241   40.1080   11.9392 C.ar    1  UNL1        0.1031
      3 C           5.2143   40.0658   12.0133 C.ar    1  UNL1        0.0356
      4 C           5.9486   41.0265   11.3094 C.ar    1  UNL1        0.0647
      5 N           3.2132   41.0666   11.1961 N.ar    1  UNL1       -0.2120
      6 N           5.2956   41.9679   10.5785 N.ar    1  UNL1       -0.2179
      7 C           7.4435   41.0384   11.3475 C.3     1  UNL1        0.0603
      8 C           7.9593   41.8185   12.5597 C.3     1  UNL1        0.0094
      9 C           9.4859   41.8106   12.5881 C.3     1  UNL1        0.0220
     10 C          10.0297   42.4077   11.2945 C.3     1  UNL1        0.0937
     11 C           8.0216   41.6032   10.0483 C.3     1  UNL1        0.0996
     12 C          10.3029   41.1930    9.0823 C.2     1  UNL1        0.2490
     13 N           9.4759   41.6813   10.1543 N.am    1  UNL1       -0.2757
     14 O           9.7941   41.0420    7.9373 O.2     1  UNL1       -0.2699
     15 C          11.7309   40.8476    9.2771 C.ar    1  UNL1        0.0537
     16 C          12.7104   41.2444    8.3537 C.ar    1  UNL1        0.0068
     17 C          14.0565   40.9344    8.5672 C.ar    1  UNL1        0.0298
     18 C          14.4374   40.2299    9.7116 C.ar    1  UNL1        0.1401
     19 C          13.4734   39.8407   10.6446 C.ar    1  UNL1        0.0298
     20 C          12.1275   40.1514   10.4296 C.ar    1  UNL1        0.0068
     21 F          15.7416   39.9287    9.9191 F       1  UNL1       -0.2042
     22 N           3.2961   43.0087    9.7313 N.pl3   1  UNL1       -0.2678
     23 H           2.3362   43.1550    9.8943 H       1  UNL1        0.1565
     24 C           5.7961   44.3142    7.3163 C.ar    1  UNL1        0.1331
     25 C           3.8679   45.6834    7.2628 C.ar    1  UNL1        0.2012
     26 C           3.9146   43.8288    8.7327 C.ar    1  UNL1        0.1389
     27 C           5.1981   43.5085    8.2917 C.ar    1  UNL1        0.0686
     28 N           5.1180   45.3835    6.8235 N.ar    1  UNL1       -0.2091
     29 N           3.2756   44.9100    8.2093 N.ar    1  UNL1       -0.2088
     30 C           7.4706   42.7639    6.2139 C.3     1  UNL1        0.1096
     31 N           7.1097   44.0320    6.8280 N.pl3   1  UNL1       -0.3166
     32 H           7.8015   44.7275    6.9112 H       1  UNL1        0.1482
@<TRIPOS>BOND
     1    30    31    1
     2    25    28   ar
     3    26    29   ar
     4    26    22    1
     5    27    24   ar
     6     1     6   ar
     7     2     5   ar
     8     3     4   ar
     9     7     4    1
    10     7     8    1
    11     8     9    1
    12     9    10    1
    13    10    13    1
    14    11    13    1
    15    11     7    1
    16    12    15    1
    17    16    17   ar
    18    18    19   ar
    19    18    21    1
    20    20    15   ar
    21    31    24    1
    22    22     1    1
    23    13    12   am
    24    24    28   ar
    25    25    29   ar
    26    26    27   ar
    27     1     5   ar
    28     2     3   ar
    29     4     6   ar
    30    12    14    2
    31    15    16   ar
    32    17    18   ar
    33    19    20   ar
    34    31    32    1
    35    22    23    1
@<TRIPOS>MOLECULE
MolPort-020-295-087 MCULE-2160186047 PubChem-110267185
 32 35 0 0 0
SMALL
GASTEIGER

@<TRIPOS>ATOM
      1 C           7.3163   40.3722    6.7799 C.ar    1  UNL1        0.2214
      2 C           8.2607   38.8332    5.2487 C.ar    1  UNL1        0.1031
      3 C           9.5406   39.1670    5.6851 C.ar    1  UNL1        0.0356
      4 C           9.6713   40.1290    6.6926 C.ar    1  UNL1        0.0647
      5 N           7.1769   39.4379    5.8000 N.ar    1  UNL1       -0.2120
      6 N           8.5590   40.7083    7.2162 N.ar    1  UNL1       -0.2179
      7 C          11.0162   40.5321    7.2075 C.3     1  UNL1        0.0603
      8 C          11.1402   40.2525    8.7077 C.3     1  UNL1        0.0094
      9 C          12.5223   40.6598    9.2130 C.3     1  UNL1        0.0220
     10 C          12.7647   42.1367    8.9204 C.3     1  UNL1        0.0937
     11 C          11.3035   42.0033    6.9006 C.3     1  UNL1        0.0996
     12 C          13.5456   43.1184    6.7135 C.2     1  UNL1        0.2490
     13 N          12.5829   42.3847    7.4921 N.am    1  UNL1       -0.2757
     14 O          13.1576   43.7321    5.6813 O.2     1  UNL1       -0.2699
     15 C          14.9825   43.1693    7.0730 C.ar    1  UNL1        0.0537
     16 C          15.7887   44.2576    6.7057 C.ar    1  UNL1        0.0068
     17 C          17.1354   44.3027    7.0772 C.ar    1  UNL1        0.0298
     18 C          17.6878   43.2616    7.8270 C.ar    1  UNL1        0.1401
     19 C          16.8923   42.1790    8.2098 C.ar    1  UNL1        0.0298
     20 C          15.5457   42.1353    7.8373 C.ar    1  UNL1        0.0068
     21 F          18.9928   43.3043    8.1871 F       1  UNL1       -0.2042
     22 N           6.1745   41.0114    7.3633 N.pl3   1  UNL1       -0.2678
     23 H           5.5179   41.4013    6.7420 H       1  UNL1        0.1565
     24 C           6.6275   41.6890   10.9857 C.ar    1  UNL1        0.1331
     25 C           4.4074   40.9716   10.5960 C.ar    1  UNL1        0.2012
     26 C           5.8952   41.1384    8.7626 C.ar    1  UNL1        0.1389
     27 C           6.9076   41.5675    9.6201 C.ar    1  UNL1        0.0686
     28 N           5.3839   41.3885   11.4434 N.ar    1  UNL1       -0.2091
     29 N           4.6655   40.8490    9.2681 N.ar    1  UNL1       -0.2088
     30 C           8.7031   41.2634   12.3762 C.3     1  UNL1        0.1096
     31 N           7.6278   42.1245   11.9096 N.pl3   1  UNL1       -0.3166
     32 H           7.5870   43.0492   12.2452 H       1  UNL1        0.1482
@<TRIPOS>BOND
     1    30    31    1
     2    25    28   ar
     3    26    29   ar
     4    26    22    1
     5    27    24   ar
     6     1     6   ar
     7     2     5   ar
     8     3     4   ar
     9     7     4    1
    10     7     8    1
    11     8     9    1
    12     9    10    1
    13    10    13    1
    14    11    13    1
    15    11     7    1
    16    12    15    1
    17    16    17   ar
    18    18    19   ar
    19    18    21    1
    20    20    15   ar
    21    31    24    1
    22    22     1    1
    23    13    12   am
    24    24    28   ar
    25    25    29   ar
    26    26    27   ar
    27     1     5   ar
    28     2     3   ar
    29     4     6   ar
    30    12    14    2
    31    15    16   ar
    32    17    18   ar
    33    19    20   ar
    34    31    32    1
    35    22    23    1
