@<TRIPOS>MOLECULE
MolPort-020-286-832 MCULE-8425089913 PubChem-110260869
 34 37 0 0 0
SMALL
GASTEIGER

@<TRIPOS>ATOM
      1 C          11.2288   35.8447   11.0343 C.3     1  UNL1        0.0519
      2 C          11.7246   36.9660   10.1857 C.ar    1  UNL1        0.0595
      3 C          12.9711   37.5631   10.4216 C.ar    1  UNL1        0.0239
      4 C          13.9043   37.0535   11.4892 C.3     1  UNL1        0.0400
      5 C          14.7322   38.1894   12.0849 C.3     1  UNL1        0.0905
      6 C          15.3867   38.9696   10.9889 C.2     1  UNL1        0.2307
      7 C          13.3811   38.6068    9.5733 C.ar    1  UNL1        0.1358
      8 C          11.3553   38.4252    8.3575 C.ar    1  UNL1        0.1545
      9 O          16.5721   39.3722   11.1308 O.2     1  UNL1       -0.2745
     10 N          14.6524   39.2492    9.7856 N.am    1  UNL1       -0.2441
     11 N          12.5627   39.0150    8.5672 N.ar    1  UNL1       -0.2146
     12 N          10.9448   37.4162    9.1689 N.ar    1  UNL1       -0.2338
     13 C          10.4342   38.9268    7.2814 C.3     1  UNL1        0.1170
     14 C          11.1325   39.6008    6.1250 C.3     1  UNL1        0.0252
     15 C          10.0494   40.4542    5.5125 C.3     1  UNL1        0.0192
     16 C           8.9275   40.5117    6.5437 C.3     1  UNL1        0.0728
     17 N           9.3574   39.8087    7.7484 N.3     1  UNL1       -0.2640
     18 C           9.8615   40.8408    8.6569 C.3     1  UNL1        0.0994
     19 C          11.1150   41.4414    8.1164 C.ar    1  UNL1       -0.0061
     20 C          12.0588   41.9792    8.9955 C.ar    1  UNL1       -0.0016
     21 C          13.2289   42.5589    8.4967 C.ar    1  UNL1        0.0144
     22 C          13.4628   42.6091    7.1137 C.ar    1  UNL1        0.0503
     23 C          12.5107   42.0744    6.2390 C.ar    1  UNL1        0.0144
     24 C          11.3407   41.4944    6.7364 C.ar    1  UNL1       -0.0016
     25 C          14.7305   44.3787    5.7605 C.2     1  UNL1        0.2266
     26 C          16.0569   44.8409    5.2763 C.3     1  UNL1        0.0949
     27 O          13.6995   45.0342    5.4559 O.2     1  UNL1       -0.2748
     28 N          14.6512   43.1953    6.5651 N.am    1  UNL1       -0.2839
     29 H          15.5003   42.7375    6.7616 H       1  UNL1        0.1549
     30 C          15.1948   40.1791    8.7975 C.3     1  UNL1        0.0996
     31 C          16.1303   41.1928    9.4482 C.3     1  UNL1        0.0219
     32 C          17.0640   41.8246    8.4292 C.3     1  UNL1        0.0017
     33 C          18.3821   41.0801    8.4330 C.3     1  UNL1        0.0001
     34 C          17.3179   43.2766    8.7858 C.3     1  UNL1        0.0001
@<TRIPOS>BOND
     1     1     2    1
     2     2    12   ar
     3     4     3    1
     4     4     5    1
     5     5     6    1
     6     6    10   am
     7     7     3   ar
     8     8    11   ar
     9    13     8    1
    10    13    14    1
    11    13    17    1
    12    14    15    1
    13    15    16    1
    14    16    17    1
    15    18    17    1
    16    18    19    1
    17    20    21   ar
    18    22    23   ar
    19    22    28    1
    20    24    19   ar
    21    26    25    1
    22    30    10    1
    23    30    31    1
    24    31    32    1
    25    32    33    1
    26    32    34    1
    27    10     7    1
    28    28    25   am
    29     2     3   ar
    30     6     9    2
    31     7    11   ar
    32     8    12   ar
    33    19    20   ar
    34    21    22   ar
    35    23    24   ar
    36    25    27    2
    37    28    29    1
@<TRIPOS>MOLECULE
MolPort-020-286-832 MCULE-8425089913 PubChem-110260869
 34 37 0 0 0
SMALL
GASTEIGER

@<TRIPOS>ATOM
      1 C           9.7529   41.6949    5.4417 C.3     1  UNL1        0.0519
      2 C           9.2382   41.5807    6.8364 C.ar    1  UNL1        0.0595
      3 C           8.0045   42.1351    7.2060 C.ar    1  UNL1        0.0239
      4 C           7.1027   42.8027    6.2003 C.3     1  UNL1        0.0400
      5 C           6.3031   43.9333    6.8429 C.3     1  UNL1        0.0905
      6 C           5.6191   43.4343    8.0763 C.2     1  UNL1        0.2307
      7 C           7.5749   41.9776    8.5356 C.ar    1  UNL1        0.1358
      8 C           9.5586   40.7853    9.0438 C.ar    1  UNL1        0.1545
      9 O           4.4420   43.8043    8.3310 O.2     1  UNL1       -0.2745
     10 N           6.3160   42.5365    8.9560 N.am    1  UNL1       -0.2441
     11 N           8.3632   41.3124    9.4214 N.ar    1  UNL1       -0.2146
     12 N           9.9878   40.9297    7.7632 N.ar    1  UNL1       -0.2338
     13 C          10.4480   40.1067   10.0470 C.3     1  UNL1        0.1170
     14 C          11.5156   40.9955   10.6381 C.3     1  UNL1        0.0252
     15 C          12.5485   40.0158   11.1377 C.3     1  UNL1        0.0192
     16 C          12.2062   38.6786   10.4896 C.3     1  UNL1        0.0728
     17 N          11.0847   38.8708    9.5753 N.3     1  UNL1       -0.2640
     18 C          11.6754   39.0418    8.2461 C.3     1  UNL1        0.0994
     19 C          12.9595   39.7941    8.3413 C.ar    1  UNL1       -0.0061
     20 C          14.0680   39.1957    8.9461 C.ar    1  UNL1       -0.0016
     21 C          15.2709   39.8996    9.0544 C.ar    1  UNL1        0.0144
     22 C          15.3737   41.2099    8.5620 C.ar    1  UNL1        0.0503
     23 C          14.2581   41.8052    7.9633 C.ar    1  UNL1        0.0144
     24 C          13.0551   41.1025    7.8543 C.ar    1  UNL1       -0.0016
     25 C          16.9689   43.0841    7.8462 C.2     1  UNL1        0.2266
     26 C          18.2779   43.7447    8.0859 C.3     1  UNL1        0.0949
     27 O          16.2146   43.5204    6.9372 O.2     1  UNL1       -0.2748
     28 N          16.5907   41.9629    8.6549 N.am    1  UNL1       -0.2839
     29 H          17.2328   41.6804    9.3456 H       1  UNL1        0.1549
     30 C           5.7487   42.2044   10.2610 C.3     1  UNL1        0.0996
     31 C           4.2927   42.6480   10.3593 C.3     1  UNL1        0.0219
     32 C           3.3710   41.4759   10.6526 C.3     1  UNL1        0.0017
     33 C           4.1815   40.3402   11.2401 C.3     1  UNL1        0.0001
     34 C           2.7114   40.9993    9.3729 C.3     1  UNL1        0.0001
@<TRIPOS>BOND
     1     1     2    1
     2     2    12   ar
     3     4     3    1
     4     4     5    1
     5     5     6    1
     6     6    10   am
     7     7     3   ar
     8     8    11   ar
     9    13     8    1
    10    13    14    1
    11    13    17    1
    12    14    15    1
    13    15    16    1
    14    16    17    1
    15    18    17    1
    16    18    19    1
    17    20    21   ar
    18    22    23   ar
    19    22    28    1
    20    24    19   ar
    21    26    25    1
    22    30    10    1
    23    30    31    1
    24    31    32    1
    25    32    33    1
    26    32    34    1
    27    10     7    1
    28    28    25   am
    29     2     3   ar
    30     6     9    2
    31     7    11   ar
    32     8    12   ar
    33    19    20   ar
    34    21    22   ar
    35    23    24   ar
    36    25    27    2
    37    28    29    1
@<TRIPOS>MOLECULE
MolPort-020-286-832 MCULE-8425089913 PubChem-110260869
 34 37 0 0 0
SMALL
GASTEIGER

@<TRIPOS>ATOM
      1 C           5.7638   43.4763    6.4206 C.3     1  UNL1        0.0519
      2 C           7.1002   42.8880    6.7223 C.ar    1  UNL1        0.0595
      3 C           7.8017   43.2306    7.8870 C.ar    1  UNL1        0.0239
      4 C           7.2101   44.1454    8.9280 C.3     1  UNL1        0.0400
      5 C           8.2956   44.9638    9.6226 C.3     1  UNL1        0.0905
      6 C           9.3782   44.0567   10.1158 C.2     1  UNL1        0.2307
      7 C           9.0510   42.6268    8.1142 C.ar    1  UNL1        0.1358
      8 C           8.8529   41.4319    6.0776 C.ar    1  UNL1        0.1545
      9 O           9.9034   44.2656   11.2418 O.2     1  UNL1       -0.2745
     10 N           9.8049   42.9559    9.2964 N.am    1  UNL1       -0.2441
     11 N           9.5474   41.7479    7.2034 N.ar    1  UNL1       -0.2146
     12 N           7.6450   42.0073    5.8436 N.ar    1  UNL1       -0.2338
     13 C           9.4403   40.5069    5.0493 C.3     1  UNL1        0.1170
     14 C           8.8684   39.1098    5.0659 C.3     1  UNL1        0.0252
     15 C           9.9366   38.2871    4.3887 C.3     1  UNL1        0.0192
     16 C          11.1850   39.1623    4.3605 C.3     1  UNL1        0.0728
     17 N          10.9048   40.4069    5.0696 N.3     1  UNL1       -0.2640
     18 C          11.4135   40.2171    6.4298 C.3     1  UNL1        0.0994
     19 C          12.6153   41.0700    6.6585 C.ar    1  UNL1       -0.0061
     20 C          13.5281   40.7244    7.6586 C.ar    1  UNL1       -0.0016
     21 C          14.6486   41.5271    7.8909 C.ar    1  UNL1        0.0144
     22 C          14.8633   42.6850    7.1273 C.ar    1  UNL1        0.0503
     23 C          13.9420   43.0286    6.1319 C.ar    1  UNL1        0.0144
     24 C          12.8215   42.2268    5.8985 C.ar    1  UNL1       -0.0016
     25 C          17.3147   43.1216    7.7353 C.2     1  UNL1        0.2266
     26 C          18.3769   44.1463    7.9049 C.3     1  UNL1        0.0949
     27 O          17.5867   41.9101    7.9446 O.2     1  UNL1       -0.2748
     28 N          16.0009   43.5328    7.3364 N.am    1  UNL1       -0.2839
     29 H          15.8655   44.4970    7.1910 H       1  UNL1        0.1549
     30 C          10.9930   42.1886    9.6635 C.3     1  UNL1        0.0996
     31 C          10.7868   41.4477   10.9806 C.3     1  UNL1        0.0219
     32 C          11.1858   39.9858   10.8668 C.3     1  UNL1        0.0017
     33 C          12.6913   39.8708   10.9766 C.3     1  UNL1        0.0001
     34 C          10.7461   39.4289    9.5266 C.3     1  UNL1        0.0001
@<TRIPOS>BOND
     1     1     2    1
     2     2    12   ar
     3     4     3    1
     4     4     5    1
     5     5     6    1
     6     6    10   am
     7     7     3   ar
     8     8    11   ar
     9    13     8    1
    10    13    14    1
    11    13    17    1
    12    14    15    1
    13    15    16    1
    14    16    17    1
    15    18    17    1
    16    18    19    1
    17    20    21   ar
    18    22    23   ar
    19    22    28    1
    20    24    19   ar
    21    26    25    1
    22    30    10    1
    23    30    31    1
    24    31    32    1
    25    32    33    1
    26    32    34    1
    27    10     7    1
    28    28    25   am
    29     2     3   ar
    30     6     9    2
    31     7    11   ar
    32     8    12   ar
    33    19    20   ar
    34    21    22   ar
    35    23    24   ar
    36    25    27    2
    37    28    29    1
@<TRIPOS>MOLECULE
MolPort-020-286-832 MCULE-8425089913 PubChem-110260869
 34 37 0 0 0
SMALL
GASTEIGER

@<TRIPOS>ATOM
      1 C          10.9043   40.6423   11.7496 C.3     1  UNL1        0.0519
      2 C          11.5350   39.9483   10.5904 C.ar    1  UNL1        0.0595
      3 C          12.7185   39.2111   10.7377 C.ar    1  UNL1        0.0239
      4 C          13.3685   39.0167   12.0830 C.3     1  UNL1        0.0400
      5 C          14.8862   38.9165   11.9518 C.3     1  UNL1        0.0905
      6 C          15.2403   37.8914   10.9214 C.2     1  UNL1        0.2307
      7 C          13.2502   38.5712    9.6041 C.ar    1  UNL1        0.1358
      8 C          11.4737   39.4167    8.2835 C.ar    1  UNL1        0.1545
      9 O          16.2099   37.1124   11.1226 O.2     1  UNL1       -0.2745
     10 N          14.4669   37.8084    9.7130 N.am    1  UNL1       -0.2441
     11 N          12.6189   38.6936    8.4062 N.ar    1  UNL1       -0.2146
     12 N          10.9480   40.0414    9.3691 N.ar    1  UNL1       -0.2338
     13 C          10.8202   39.5952    6.9422 C.3     1  UNL1        0.1170
     14 C          11.7849   39.7993    5.7991 C.3     1  UNL1        0.0252
     15 C          10.9407   40.4733    4.7458 C.3     1  UNL1        0.0192
     16 C           9.6780   40.9449    5.4590 C.3     1  UNL1        0.0728
     17 N           9.8037   40.6529    6.8835 N.3     1  UNL1       -0.2640
     18 C          10.2770   41.8908    7.5067 C.3     1  UNL1        0.0994
     19 C          11.7137   42.1206    7.1796 C.ar    1  UNL1       -0.0061
     20 C          12.6947   41.8280    8.1308 C.ar    1  UNL1       -0.0016
     21 C          14.0426   42.0557    7.8387 C.ar    1  UNL1        0.0144
     22 C          14.4202   42.5823    6.5937 C.ar    1  UNL1        0.0503
     23 C          13.4324   42.8790    5.6483 C.ar    1  UNL1        0.0144
     24 C          12.0846   42.6515    5.9390 C.ar    1  UNL1       -0.0016
     25 C          16.4005   44.1049    6.0193 C.2     1  UNL1        0.2266
     26 C          17.8456   44.1693    5.6802 C.3     1  UNL1        0.0949
     27 O          15.7352   45.1715    6.0912 O.2     1  UNL1       -0.2748
     28 N          15.7925   42.8292    6.2580 N.am    1  UNL1       -0.2839
     29 H          16.3774   42.0407    6.1839 H       1  UNL1        0.1549
     30 C          14.9198   36.9616    8.6116 C.3     1  UNL1        0.0996
     31 C          14.6487   35.4887    8.9000 C.3     1  UNL1        0.0219
     32 C          15.7845   34.6059    8.4099 C.3     1  UNL1        0.0017
     33 C          16.2094   35.0617    7.0303 C.3     1  UNL1        0.0001
     34 C          15.3257   33.1626    8.3320 C.3     1  UNL1        0.0001
@<TRIPOS>BOND
     1     1     2    1
     2     2    12   ar
     3     4     3    1
     4     4     5    1
     5     5     6    1
     6     6    10   am
     7     7     3   ar
     8     8    11   ar
     9    13     8    1
    10    13    14    1
    11    13    17    1
    12    14    15    1
    13    15    16    1
    14    16    17    1
    15    18    17    1
    16    18    19    1
    17    20    21   ar
    18    22    23   ar
    19    22    28    1
    20    24    19   ar
    21    26    25    1
    22    30    10    1
    23    30    31    1
    24    31    32    1
    25    32    33    1
    26    32    34    1
    27    10     7    1
    28    28    25   am
    29     2     3   ar
    30     6     9    2
    31     7    11   ar
    32     8    12   ar
    33    19    20   ar
    34    21    22   ar
    35    23    24   ar
    36    25    27    2
    37    28    29    1
@<TRIPOS>MOLECULE
MolPort-020-286-832 MCULE-8425089913 PubChem-110260869
 34 37 0 0 0
SMALL
GASTEIGER

@<TRIPOS>ATOM
      1 C          14.0454   44.1055    5.6648 C.3     1  UNL1        0.0519
      2 C          13.7926   42.8310    6.3961 C.ar    1  UNL1        0.0595
      3 C          14.7069   42.3363    7.3368 C.ar    1  UNL1        0.0239
      4 C          15.9482   43.1026    7.7141 C.3     1  UNL1        0.0400
      5 C          17.0915   42.1566    8.0727 C.3     1  UNL1        0.0905
      6 C          16.6272   41.1605    9.0878 C.2     1  UNL1        0.2307
      7 C          14.3974   41.1351    7.9990 C.ar    1  UNL1        0.1358
      8 C          12.3685   40.9792    6.7848 C.ar    1  UNL1        0.1545
      9 O          17.3903   40.8317   10.0348 O.2     1  UNL1       -0.2745
     10 N          15.3129   40.5915    8.9687 N.am    1  UNL1       -0.2441
     11 N          13.2406   40.4846    7.7037 N.ar    1  UNL1       -0.2146
     12 N          12.6537   42.1381    6.1362 N.ar    1  UNL1       -0.2338
     13 C          11.1239   40.2190    6.4228 C.3     1  UNL1        0.1170
     14 C          10.5511   40.5657    5.0697 C.3     1  UNL1        0.0252
     15 C           9.1107   40.1298    5.1782 C.3     1  UNL1        0.0192
     16 C           8.8493   39.9120    6.6647 C.3     1  UNL1        0.0728
     17 N          10.0434   40.2904    7.4141 N.3     1  UNL1       -0.2640
     18 C           9.8153   41.6650    7.8651 C.3     1  UNL1        0.0994
     19 C           8.6089   41.7313    8.7392 C.ar    1  UNL1       -0.0061
     20 C           8.7430   41.5456   10.1177 C.ar    1  UNL1       -0.0016
     21 C           7.6154   41.5897   10.9427 C.ar    1  UNL1        0.0144
     22 C           6.3432   41.8160   10.3948 C.ar    1  UNL1        0.0503
     23 C           6.2153   41.9949    9.0130 C.ar    1  UNL1        0.0144
     24 C           7.3418   41.9512    8.1873 C.ar    1  UNL1       -0.0016
     25 C           3.8423   42.2224   10.7822 C.2     1  UNL1        0.2266
     26 C           2.7343   42.2226   11.7720 C.3     1  UNL1        0.0949
     27 O           3.6014   42.5331    9.5860 O.2     1  UNL1       -0.2748
     28 N           5.1638   41.8683   11.2091 N.am    1  UNL1       -0.2839
     29 H           5.2733   41.6369   12.1597 H       1  UNL1        0.1549
     30 C          14.9209   39.4720    9.8221 C.3     1  UNL1        0.0996
     31 C          13.7983   39.8704   10.7746 C.3     1  UNL1        0.0219
     32 C          12.9849   38.6642   11.2138 C.3     1  UNL1        0.0017
     33 C          13.9146   37.4898   11.4327 C.3     1  UNL1        0.0001
     34 C          11.9749   38.2995   10.1429 C.3     1  UNL1        0.0001
@<TRIPOS>BOND
     1     1     2    1
     2     2    12   ar
     3     4     3    1
     4     4     5    1
     5     5     6    1
     6     6    10   am
     7     7     3   ar
     8     8    11   ar
     9    13     8    1
    10    13    14    1
    11    13    17    1
    12    14    15    1
    13    15    16    1
    14    16    17    1
    15    18    17    1
    16    18    19    1
    17    20    21   ar
    18    22    23   ar
    19    22    28    1
    20    24    19   ar
    21    26    25    1
    22    30    10    1
    23    30    31    1
    24    31    32    1
    25    32    33    1
    26    32    34    1
    27    10     7    1
    28    28    25   am
    29     2     3   ar
    30     6     9    2
    31     7    11   ar
    32     8    12   ar
    33    19    20   ar
    34    21    22   ar
    35    23    24   ar
    36    25    27    2
    37    28    29    1
@<TRIPOS>MOLECULE
MolPort-020-286-832 MCULE-8425089913 PubChem-110260869
 34 37 0 0 0
SMALL
GASTEIGER

@<TRIPOS>ATOM
      1 C          13.3764   42.0545    7.4690 C.3     1  UNL1        0.0519
      2 C          12.0000   41.6067    7.8267 C.ar    1  UNL1        0.0595
      3 C          11.2104   40.8831    6.9218 C.ar    1  UNL1        0.0239
      4 C          11.7378   40.4538    5.5772 C.3     1  UNL1        0.0400
      5 C          10.6229   40.4160    4.5350 C.3     1  UNL1        0.0905
      6 C           9.4718   39.6122    5.0517 C.2     1  UNL1        0.2307
      7 C           9.9266   40.4811    7.3312 C.ar    1  UNL1        0.1358
      8 C          10.2638   41.5183    9.4348 C.ar    1  UNL1        0.1545
      9 O           8.8566   38.8324    4.2766 O.2     1  UNL1       -0.2745
     10 N           9.0829   39.7404    6.4292 N.am    1  UNL1       -0.2441
     11 N           9.4837   40.8122    8.5732 N.ar    1  UNL1       -0.2146
     12 N          11.5060   41.9145    9.0539 N.ar    1  UNL1       -0.2338
     13 C           9.7392   41.9310   10.7811 C.3     1  UNL1        0.1170
     14 C           9.9051   40.8907   11.8624 C.3     1  UNL1        0.0252
     15 C           8.8696   41.2836   12.8869 C.3     1  UNL1        0.0192
     16 C           7.9410   42.2704   12.1874 C.3     1  UNL1        0.0728
     17 N           8.3439   42.3876   10.7894 N.3     1  UNL1       -0.2640
     18 C           7.4738   41.4762   10.0432 C.3     1  UNL1        0.0994
     19 C           6.0455   41.7118   10.4016 C.ar    1  UNL1       -0.0061
     20 C           5.3615   42.7938    9.8411 C.ar    1  UNL1       -0.0016
     21 C           4.0274   43.0318   10.1841 C.ar    1  UNL1        0.0144
     22 C           3.3675   42.1914   11.0941 C.ar    1  UNL1        0.0503
     23 C           4.0601   41.1137   11.6564 C.ar    1  UNL1        0.0144
     24 C           5.3938   40.8745   11.3141 C.ar    1  UNL1       -0.0016
     25 C           1.4296   42.2183   12.7716 C.2     1  UNL1        0.2266
     26 C          -0.0169   42.4881   12.9768 C.3     1  UNL1        0.0949
     27 O           2.1295   41.8316   13.7444 O.2     1  UNL1       -0.2748
     28 N           1.9998   42.4038   11.4698 N.am    1  UNL1       -0.2839
     29 H           1.3894   42.7085   10.7601 H       1  UNL1        0.1549
     30 C           7.8424   39.1273    6.8989 C.3     1  UNL1        0.0996
     31 C           6.7064   39.3486    5.9055 C.3     1  UNL1        0.0219
     32 C           5.8851   40.5766    6.2616 C.3     1  UNL1        0.0017
     33 C           6.7070   41.8196    5.9947 C.3     1  UNL1        0.0001
     34 C           5.5071   40.5423    7.7299 C.3     1  UNL1        0.0001
@<TRIPOS>BOND
     1     1     2    1
     2     2    12   ar
     3     4     3    1
     4     4     5    1
     5     5     6    1
     6     6    10   am
     7     7     3   ar
     8     8    11   ar
     9    13     8    1
    10    13    14    1
    11    13    17    1
    12    14    15    1
    13    15    16    1
    14    16    17    1
    15    18    17    1
    16    18    19    1
    17    20    21   ar
    18    22    23   ar
    19    22    28    1
    20    24    19   ar
    21    26    25    1
    22    30    10    1
    23    30    31    1
    24    31    32    1
    25    32    33    1
    26    32    34    1
    27    10     7    1
    28    28    25   am
    29     2     3   ar
    30     6     9    2
    31     7    11   ar
    32     8    12   ar
    33    19    20   ar
    34    21    22   ar
    35    23    24   ar
    36    25    27    2
    37    28    29    1
@<TRIPOS>MOLECULE
MolPort-020-286-832 MCULE-8425089913 PubChem-110260869
 34 37 0 0 0
SMALL
GASTEIGER

@<TRIPOS>ATOM
      1 C          10.0259   41.4600    5.3166 C.3     1  UNL1        0.0519
      2 C           9.6546   41.5630    6.7570 C.ar    1  UNL1        0.0595
      3 C           8.4175   42.0892    7.1553 C.ar    1  UNL1        0.0239
      4 C           7.3722   42.5025    6.1519 C.3     1  UNL1        0.0400
      5 C           6.5415   43.6728    6.6725 C.3     1  UNL1        0.0905
      6 C           6.0205   43.3576    8.0390 C.2     1  UNL1        0.2307
      7 C           8.1284   42.1437    8.5303 C.ar    1  UNL1        0.1358
      8 C          10.2458   41.2001    9.0212 C.ar    1  UNL1        0.1545
      9 O           4.8446   43.6861    8.3503 O.2     1  UNL1       -0.2745
     10 N           6.8705   42.6818    8.9803 N.am    1  UNL1       -0.2441
     11 N           9.0497   41.7035    9.4280 N.ar    1  UNL1       -0.2146
     12 N          10.5402   41.1415    7.6965 N.ar    1  UNL1       -0.2338
     13 C          11.2795   40.7747   10.0255 C.3     1  UNL1        0.1170
     14 C          12.7000   41.1121    9.6415 C.3     1  UNL1        0.0252
     15 C          13.5218   40.1508   10.4643 C.3     1  UNL1        0.0192
     16 C          12.5466   39.0950   10.9738 C.3     1  UNL1        0.0728
     17 N          11.2279   39.3578   10.4062 N.3     1  UNL1       -0.2640
     18 C          11.1152   38.4880    9.2334 C.3     1  UNL1        0.0994
     19 C          12.2656   37.5408    9.1768 C.ar    1  UNL1       -0.0061
     20 C          12.2583   36.3957    9.9777 C.ar    1  UNL1       -0.0016
     21 C          13.3399   35.5109    9.9433 C.ar    1  UNL1        0.0144
     22 C          14.4401   35.7663    9.1102 C.ar    1  UNL1        0.0503
     23 C          14.4437   36.9179    8.3156 C.ar    1  UNL1        0.0144
     24 C          13.3629   37.8032    8.3489 C.ar    1  UNL1       -0.0016
     25 C          16.9279   35.2446    8.7807 C.2     1  UNL1        0.2266
     26 C          17.9705   34.1865    8.7546 C.3     1  UNL1        0.0949
     27 O          17.2572   36.4411    8.5678 O.2     1  UNL1       -0.2748
     28 N          15.5673   34.8819    9.0479 N.am    1  UNL1       -0.2839
     29 H          15.3879   33.9267    9.2050 H       1  UNL1        0.1549
     30 C           6.4575   42.5512   10.3758 C.3     1  UNL1        0.0996
     31 C           5.8816   41.1666   10.6540 C.3     1  UNL1        0.0219
     32 C           4.3764   41.2188   10.8567 C.3     1  UNL1        0.0017
     33 C           3.9724   40.1603   11.8608 C.3     1  UNL1        0.0001
     34 C           3.6648   40.9500    9.5448 C.3     1  UNL1        0.0001
@<TRIPOS>BOND
     1     1     2    1
     2     2    12   ar
     3     4     3    1
     4     4     5    1
     5     5     6    1
     6     6    10   am
     7     7     3   ar
     8     8    11   ar
     9    13     8    1
    10    13    14    1
    11    13    17    1
    12    14    15    1
    13    15    16    1
    14    16    17    1
    15    18    17    1
    16    18    19    1
    17    20    21   ar
    18    22    23   ar
    19    22    28    1
    20    24    19   ar
    21    26    25    1
    22    30    10    1
    23    30    31    1
    24    31    32    1
    25    32    33    1
    26    32    34    1
    27    10     7    1
    28    28    25   am
    29     2     3   ar
    30     6     9    2
    31     7    11   ar
    32     8    12   ar
    33    19    20   ar
    34    21    22   ar
    35    23    24   ar
    36    25    27    2
    37    28    29    1
@<TRIPOS>MOLECULE
MolPort-020-286-832 MCULE-8425089913 PubChem-110260869
 34 37 0 0 0
SMALL
GASTEIGER

@<TRIPOS>ATOM
      1 C          14.9726   42.6780    6.8453 C.3     1  UNL1        0.0519
      2 C          14.3200   41.5373    7.5496 C.ar    1  UNL1        0.0595
      3 C          14.9407   40.8972    8.6317 C.ar    1  UNL1        0.0239
      4 C          16.2568   41.3766    9.1869 C.3     1  UNL1        0.0400
      5 C          17.0780   40.2138    9.7384 C.3     1  UNL1        0.0905
      6 C          16.2455   39.4077   10.6845 C.2     1  UNL1        0.2307
      7 C          14.2612   39.8370    9.2575 C.ar    1  UNL1        0.1358
      8 C          12.4580   40.0867    7.7407 C.ar    1  UNL1        0.1545
      9 O          16.7591   38.9638   11.7459 O.2     1  UNL1       -0.2745
     10 N          14.8672   39.1507   10.3692 N.am    1  UNL1       -0.2441
     11 N          13.0413   39.4551    8.7945 N.ar    1  UNL1       -0.2146
     12 N          13.1020   41.1120    7.1251 N.ar    1  UNL1       -0.2338
     13 C          11.1378   39.6148    7.1999 C.3     1  UNL1        0.1170
     14 C          10.9838   39.7676    5.7058 C.3     1  UNL1        0.0252
     15 C           9.4882   39.7620    5.5067 C.3     1  UNL1        0.0192
     16 C           8.8803   39.9794    6.8882 C.3     1  UNL1        0.0728
     17 N           9.9575   40.1992    7.8483 N.3     1  UNL1       -0.2640
     18 C          10.0818   41.6519    7.9862 C.3     1  UNL1        0.0994
     19 C           8.7654   42.3108    7.7477 C.ar    1  UNL1       -0.0061
     20 C           7.9259   42.5898    8.8295 C.ar    1  UNL1       -0.0016
     21 C           6.6832   43.1922    8.6136 C.ar    1  UNL1        0.0144
     22 C           6.2679   43.5170    7.3129 C.ar    1  UNL1        0.0503
     23 C           7.1106   43.2292    6.2337 C.ar    1  UNL1        0.0144
     24 C           8.3534   42.6272    6.4483 C.ar    1  UNL1       -0.0016
     25 C           4.0064   44.4940    8.0205 C.2     1  UNL1        0.2266
     26 C           2.7439   45.1309    7.5644 C.3     1  UNL1        0.0949
     27 O           4.1811   44.2802    9.2490 O.2     1  UNL1       -0.2748
     28 N           5.0006   44.1358    7.0524 N.am    1  UNL1       -0.2839
     29 H           4.7920   44.3350    6.1111 H       1  UNL1        0.1549
     30 C          14.0992   38.1992   11.1693 C.3     1  UNL1        0.0996
     31 C          14.4346   36.7607   10.7893 C.3     1  UNL1        0.0219
     32 C          13.3834   36.1680    9.8657 C.3     1  UNL1        0.0017
     33 C          12.0491   36.1446   10.5805 C.3     1  UNL1        0.0001
     34 C          13.7636   34.7498    9.4864 C.3     1  UNL1        0.0001
@<TRIPOS>BOND
     1     1     2    1
     2     2    12   ar
     3     4     3    1
     4     4     5    1
     5     5     6    1
     6     6    10   am
     7     7     3   ar
     8     8    11   ar
     9    13     8    1
    10    13    14    1
    11    13    17    1
    12    14    15    1
    13    15    16    1
    14    16    17    1
    15    18    17    1
    16    18    19    1
    17    20    21   ar
    18    22    23   ar
    19    22    28    1
    20    24    19   ar
    21    26    25    1
    22    30    10    1
    23    30    31    1
    24    31    32    1
    25    32    33    1
    26    32    34    1
    27    10     7    1
    28    28    25   am
    29     2     3   ar
    30     6     9    2
    31     7    11   ar
    32     8    12   ar
    33    19    20   ar
    34    21    22   ar
    35    23    24   ar
    36    25    27    2
    37    28    29    1
@<TRIPOS>MOLECULE
MolPort-020-286-832 MCULE-8425089913 PubChem-110260869
 34 37 0 0 0
SMALL
GASTEIGER

@<TRIPOS>ATOM
      1 C           4.4379   41.2074    8.4067 C.3     1  UNL1        0.0519
      2 C           5.9246   41.0937    8.4168 C.ar    1  UNL1        0.0595
      3 C           6.6517   41.1443    9.6145 C.ar    1  UNL1        0.0239
      4 C           5.9671   41.2362   10.9536 C.3     1  UNL1        0.0400
      5 C           6.8134   42.0223   11.9518 C.3     1  UNL1        0.0905
      6 C           8.2031   41.4695   11.9857 C.2     1  UNL1        0.2307
      7 C           8.0505   41.0168    9.5506 C.ar    1  UNL1        0.1358
      8 C           7.9330   40.8211    7.1920 C.ar    1  UNL1        0.1545
      9 O           8.8053   41.3605   13.0870 O.2     1  UNL1       -0.2745
     10 N           8.8336   41.0686   10.7581 N.am    1  UNL1       -0.2441
     11 N           8.6562   40.8638    8.3430 N.ar    1  UNL1       -0.2146
     12 N           6.5810   40.9436    7.2372 N.ar    1  UNL1       -0.2338
     13 C           8.6192   40.7139    5.8595 C.3     1  UNL1        0.1170
     14 C           8.3717   39.4146    5.1317 C.3     1  UNL1        0.0252
     15 C           9.5327   39.3251    4.1723 C.3     1  UNL1        0.0192
     16 C          10.5513   40.3548    4.6494 C.3     1  UNL1        0.0728
     17 N          10.0662   40.9606    5.8855 N.3     1  UNL1       -0.2640
     18 C          10.7184   40.2292    6.9739 C.3     1  UNL1        0.0994
     19 C          12.0985   40.7492    7.1951 C.ar    1  UNL1       -0.0061
     20 C          12.9025   40.1769    8.1843 C.ar    1  UNL1       -0.0016
     21 C          14.1914   40.6688    8.4097 C.ar    1  UNL1        0.0144
     22 C          14.6854   41.7404    7.6498 C.ar    1  UNL1        0.0503
     23 C          13.8727   42.3129    6.6652 C.ar    1  UNL1        0.0144
     24 C          12.5841   41.8219    6.4388 C.ar    1  UNL1       -0.0016
     25 C          16.4802   43.5582    7.4391 C.2     1  UNL1        0.2266
     26 C          17.8847   43.9412    7.7356 C.3     1  UNL1        0.0949
     27 O          15.7343   44.3699    6.8304 O.2     1  UNL1       -0.2748
     28 N          16.0021   42.2717    7.8520 N.am    1  UNL1       -0.2839
     29 H          16.6440   41.6928    8.3232 H       1  UNL1        0.1549
     30 C          10.2536   40.7240   10.7440 C.3     1  UNL1        0.0996
     31 C          11.1254   41.9754   10.7357 C.3     1  UNL1        0.0219
     32 C          10.5894   43.0225    9.7735 C.3     1  UNL1        0.0017
     33 C          11.7463   43.6493    9.0250 C.3     1  UNL1        0.0001
     34 C           9.8541   44.1054   10.5394 C.3     1  UNL1        0.0001
@<TRIPOS>BOND
     1     1     2    1
     2     2    12   ar
     3     4     3    1
     4     4     5    1
     5     5     6    1
     6     6    10   am
     7     7     3   ar
     8     8    11   ar
     9    13     8    1
    10    13    14    1
    11    13    17    1
    12    14    15    1
    13    15    16    1
    14    16    17    1
    15    18    17    1
    16    18    19    1
    17    20    21   ar
    18    22    23   ar
    19    22    28    1
    20    24    19   ar
    21    26    25    1
    22    30    10    1
    23    30    31    1
    24    31    32    1
    25    32    33    1
    26    32    34    1
    27    10     7    1
    28    28    25   am
    29     2     3   ar
    30     6     9    2
    31     7    11   ar
    32     8    12   ar
    33    19    20   ar
    34    21    22   ar
    35    23    24   ar
    36    25    27    2
    37    28    29    1
@<TRIPOS>MOLECULE
MolPort-020-286-832 MCULE-8425089913 PubChem-110260869
 34 37 0 0 0
SMALL
GASTEIGER

@<TRIPOS>ATOM
      1 C           8.4175   42.0424   12.9468 C.3     1  UNL1        0.0519
      2 C           8.2925   41.7168   11.4972 C.ar    1  UNL1        0.0595
      3 C           9.3416   41.1087   10.7933 C.ar    1  UNL1        0.0239
      4 C          10.6137   40.6826   11.4793 C.3     1  UNL1        0.0400
      5 C          11.8105   40.7933   10.5380 C.3     1  UNL1        0.0905
      6 C          11.5139   40.0856    9.2538 C.2     1  UNL1        0.2307
      7 C           9.1494   40.8176    9.4311 C.ar    1  UNL1        0.1358
      8 C           6.9672   41.7352    9.5347 C.ar    1  UNL1        0.1545
      9 O          12.4119   39.3997    8.6967 O.2     1  UNL1       -0.2745
     10 N          10.2046   40.1977    8.6720 N.am    1  UNL1       -0.2441
     11 N           7.9712   41.1419    8.8351 N.ar    1  UNL1       -0.2146
     12 N           7.1379   42.0234   10.8511 N.ar    1  UNL1       -0.2338
     13 C           5.6939   42.1446    8.8497 C.3     1  UNL1        0.1170
     14 C           5.7001   43.5544    8.3096 C.3     1  UNL1        0.0252
     15 C           4.2337   43.8897    8.1922 C.3     1  UNL1        0.0192
     16 C           3.4948   42.8284    9.0003 C.3     1  UNL1        0.0728
     17 N           4.4744   41.9601    9.6459 N.3     1  UNL1       -0.2640
     18 C           4.6350   42.4783   11.0063 C.3     1  UNL1        0.0994
     19 C           3.4330   42.1587   11.8291 C.ar    1  UNL1       -0.0061
     20 C           3.2040   40.8417   12.2360 C.ar    1  UNL1       -0.0016
     21 C           2.0713   40.5303   12.9935 C.ar    1  UNL1        0.0144
     22 C           1.1556   41.5336   13.3469 C.ar    1  UNL1        0.0503
     23 C           1.3877   42.8491   12.9308 C.ar    1  UNL1        0.0144
     24 C           2.5199   43.1616   12.1737 C.ar    1  UNL1       -0.0016
     25 C          -1.3782   41.4652   13.7275 C.2     1  UNL1        0.2266
     26 C          -2.4723   41.1133   14.6691 C.3     1  UNL1        0.0949
     27 O          -1.6653   41.9441   12.5989 O.2     1  UNL1       -0.2748
     28 N          -0.0172   41.2524   14.1230 N.am    1  UNL1       -0.2839
     29 H           0.1276   40.8741   15.0203 H       1  UNL1        0.1549
     30 C           9.9576   39.6902    7.3242 C.3     1  UNL1        0.0996
     31 C          11.2598   39.5332    6.5459 C.3     1  UNL1        0.0219
     32 C          11.3619   40.5474    5.4187 C.3     1  UNL1        0.0017
     33 C          11.6546   41.9130    6.0029 C.3     1  UNL1        0.0001
     34 C          10.0538   40.6092    4.6540 C.3     1  UNL1        0.0001
@<TRIPOS>BOND
     1     1     2    1
     2     2    12   ar
     3     4     3    1
     4     4     5    1
     5     5     6    1
     6     6    10   am
     7     7     3   ar
     8     8    11   ar
     9    13     8    1
    10    13    14    1
    11    13    17    1
    12    14    15    1
    13    15    16    1
    14    16    17    1
    15    18    17    1
    16    18    19    1
    17    20    21   ar
    18    22    23   ar
    19    22    28    1
    20    24    19   ar
    21    26    25    1
    22    30    10    1
    23    30    31    1
    24    31    32    1
    25    32    33    1
    26    32    34    1
    27    10     7    1
    28    28    25   am
    29     2     3   ar
    30     6     9    2
    31     7    11   ar
    32     8    12   ar
    33    19    20   ar
    34    21    22   ar
    35    23    24   ar
    36    25    27    2
    37    28    29    1
