@<TRIPOS>MOLECULE
MolPort-007-723-368 ChemDiv-E157-4858 MCULE-2177005398 PubChem-22517954
 25 27 0 0 0
SMALL
GASTEIGER

@<TRIPOS>ATOM
      1 C          11.7912   40.1447    8.6266 C.2     1  UNL1        0.2678
      2 N          12.4466   41.4091    8.7741 N.am    1  UNL1       -0.2598
      3 O          11.8159   39.5216    7.5313 O.2     1  UNL1       -0.2708
      4 H          12.4007   41.8314    9.6623 H       1  UNL1        0.1569
      5 C          15.9264   43.8670    6.4825 C.ar    1  UNL1        0.1643
      6 C          14.0262   43.2341    5.8507 C.ar    1  UNL1        0.2195
      7 C          13.1624   42.1206    7.7576 C.ar    1  UNL1        0.1880
      8 N          15.7648   44.2620    5.1903 N.ar    1  UNL1       -0.1310
      9 N          14.5528   43.8608    4.7849 N.ar    1  UNL1       -0.1202
     10 N          14.4133   42.6163    7.9778 N.ar    1  UNL1       -0.1400
     11 N          14.8293   43.2225    6.8783 N.ar    1  UNL1       -0.1881
     12 S          12.5805   42.4482    6.1583 S.2     1  UNL1       -0.0111
     13 C          17.1467   44.0887    7.3145 C.3     1  UNL1        0.0677
     14 C          17.6248   42.0447    8.6648 C.3     1  UNL1        0.0005
     15 C          17.9806   42.8216    7.4113 C.3     1  UNL1        0.0080
     16 C          11.0987   39.5476    9.8095 C.3     1  UNL1        0.2413
     17 C          10.9733   40.5540   10.9548 C.3     1  UNL1        0.0532
     18 C           9.5913   41.1855   11.0153 C.3     1  UNL1        0.0044
     19 O          11.7565   38.3533   10.2298 O.3     1  UNL1       -0.4699
     20 C          13.1382   38.2671   10.4321 C.ar    1  UNL1        0.1391
     21 C          13.9781   37.6085    9.5188 C.ar    1  UNL1        0.0369
     22 C          15.3554   37.5428    9.7488 C.ar    1  UNL1        0.0031
     23 C          15.9016   38.1352   10.8905 C.ar    1  UNL1        0.0002
     24 C          15.0708   38.7934   11.8018 C.ar    1  UNL1        0.0031
     25 C          13.6933   38.8591   11.5718 C.ar    1  UNL1        0.0369
@<TRIPOS>BOND
     1    14    15    1
     2    15    13    1
     3    13     5    1
     4     6    12   ar
     5     7    12   ar
     6     7     2    1
     7    16     1    1
     8    16    17    1
     9    16    19    1
    10    17    18    1
    11    20    19    1
    12    21    22   ar
    13    23    24   ar
    14    25    20   ar
    15     8     9   ar
    16     2     1   am
    17    11    10   ar
    18    11     5   ar
    19    11     6   ar
    20     5     8   ar
    21     6     9   ar
    22     7    10   ar
    23     1     3    2
    24    20    21   ar
    25    22    23   ar
    26    24    25   ar
    27     2     4    1
@<TRIPOS>MOLECULE
MolPort-007-723-368 ChemDiv-E157-4858 MCULE-2177005398 PubChem-22517954
 25 27 0 0 0
SMALL
GASTEIGER

@<TRIPOS>ATOM
      1 C           9.6038   42.6833   10.4598 C.2     1  UNL1        0.2678
      2 N          10.2181   41.5854    9.7764 N.am    1  UNL1       -0.2598
      3 O          10.2244   43.7643   10.6466 O.2     1  UNL1       -0.2708
      4 H           9.6691   40.7779    9.6511 H       1  UNL1        0.1569
      5 C          14.1136   42.5206    7.0648 C.ar    1  UNL1        0.1643
      6 C          13.8273   41.2081    8.6791 C.ar    1  UNL1        0.2195
      7 C          11.5525   41.5453    9.2568 C.ar    1  UNL1        0.1880
      8 N          15.2963   41.8914    7.3042 N.ar    1  UNL1       -0.1310
      9 N          15.1164   41.0524    8.3327 N.ar    1  UNL1       -0.1202
     10 N          11.9333   42.3230    8.2036 N.ar    1  UNL1       -0.1400
     11 N          13.2063   42.0825    7.9369 N.ar    1  UNL1       -0.1881
     12 S          12.8373   40.5493    9.8574 S.2     1  UNL1       -0.0111
     13 C          13.8760   43.5583    6.0174 C.3     1  UNL1        0.0677
     14 C          15.8594   45.0717    6.0892 C.3     1  UNL1        0.0005
     15 C          15.1744   43.9504    5.3312 C.3     1  UNL1        0.0080
     16 C           8.1894   42.5449   10.9243 C.3     1  UNL1        0.2413
     17 C           8.1128   42.3314   12.4372 C.3     1  UNL1        0.0532
     18 C           8.9009   41.1105   12.8853 C.3     1  UNL1        0.0044
     19 O           7.5242   41.5024   10.2126 O.3     1  UNL1       -0.4699
     20 C           6.1332   41.3537   10.1896 C.ar    1  UNL1        0.1391
     21 C           5.3803   41.6320    9.0367 C.ar    1  UNL1        0.0369
     22 C           3.9919   41.4702    9.0457 C.ar    1  UNL1        0.0031
     23 C           3.3479   41.0286   10.2046 C.ar    1  UNL1        0.0002
     24 C           4.0922   40.7486   11.3542 C.ar    1  UNL1        0.0031
     25 C           5.4809   40.9103   11.3452 C.ar    1  UNL1        0.0369
@<TRIPOS>BOND
     1    14    15    1
     2    15    13    1
     3    13     5    1
     4     6    12   ar
     5     7    12   ar
     6     7     2    1
     7    16     1    1
     8    16    17    1
     9    16    19    1
    10    17    18    1
    11    20    19    1
    12    21    22   ar
    13    23    24   ar
    14    25    20   ar
    15     8     9   ar
    16     2     1   am
    17    11    10   ar
    18    11     5   ar
    19    11     6   ar
    20     5     8   ar
    21     6     9   ar
    22     7    10   ar
    23     1     3    2
    24    20    21   ar
    25    22    23   ar
    26    24    25   ar
    27     2     4    1
@<TRIPOS>MOLECULE
MolPort-007-723-368 ChemDiv-E157-4858 MCULE-2177005398 PubChem-22517954
 25 27 0 0 0
SMALL
GASTEIGER

@<TRIPOS>ATOM
      1 C           9.4412   41.3807    7.7018 C.2     1  UNL1        0.2678
      2 N           8.6187   41.7613    8.8103 N.am    1  UNL1       -0.2598
      3 O           9.1405   41.7112    6.5233 O.2     1  UNL1       -0.2708
      4 H           8.9230   41.4832    9.7043 H       1  UNL1        0.1569
      5 C           3.9306   42.9159    9.1099 C.ar    1  UNL1        0.1643
      6 C           5.6029   44.0398    8.5180 C.ar    1  UNL1        0.2195
      7 C           7.3970   42.5066    8.7474 C.ar    1  UNL1        0.1880
      8 N           3.4996   44.1669    8.7919 N.ar    1  UNL1       -0.1310
      9 N           4.5641   44.8859    8.4126 N.ar    1  UNL1       -0.1202
     10 N           6.2007   41.9485    9.0883 N.ar    1  UNL1       -0.1400
     11 N           5.2502   42.8555    8.9353 N.ar    1  UNL1       -0.1881
     12 S           7.2513   44.1612    8.2529 S.2     1  UNL1       -0.0111
     13 C           3.0719   41.7991    9.6062 C.3     1  UNL1        0.0677
     14 C           3.9714   40.3416   11.4217 C.3     1  UNL1        0.0005
     15 C           3.2197   41.6214   11.1085 C.3     1  UNL1        0.0080
     16 C          10.6940   40.6078    7.9635 C.3     1  UNL1        0.2413
     17 C          10.3966   39.1343    8.2477 C.3     1  UNL1        0.0532
     18 C           9.3308   38.5743    7.3188 C.3     1  UNL1        0.0044
     19 O          11.4442   41.2052    9.0200 O.3     1  UNL1       -0.4699
     20 C          12.6267   40.6569    9.5285 C.ar    1  UNL1        0.1391
     21 C          12.6623   40.0032   10.7714 C.ar    1  UNL1        0.0369
     22 C          13.8597   39.4634   11.2497 C.ar    1  UNL1        0.0031
     23 C          15.0274   39.5721   10.4897 C.ar    1  UNL1        0.0002
     24 C          14.9975   40.2200    9.2515 C.ar    1  UNL1        0.0031
     25 C          13.7998   40.7598    8.7730 C.ar    1  UNL1        0.0369
@<TRIPOS>BOND
     1    14    15    1
     2    15    13    1
     3    13     5    1
     4     6    12   ar
     5     7    12   ar
     6     7     2    1
     7    16     1    1
     8    16    17    1
     9    16    19    1
    10    17    18    1
    11    20    19    1
    12    21    22   ar
    13    23    24   ar
    14    25    20   ar
    15     8     9   ar
    16     2     1   am
    17    11    10   ar
    18    11     5   ar
    19    11     6   ar
    20     5     8   ar
    21     6     9   ar
    22     7    10   ar
    23     1     3    2
    24    20    21   ar
    25    22    23   ar
    26    24    25   ar
    27     2     4    1
@<TRIPOS>MOLECULE
MolPort-007-723-368 ChemDiv-E157-4858 MCULE-2177005398 PubChem-22517954
 25 27 0 0 0
SMALL
GASTEIGER

@<TRIPOS>ATOM
      1 C           9.6370   41.4943    8.1674 C.2     1  UNL1        0.2678
      2 N           8.7122   41.8761    9.1916 N.am    1  UNL1       -0.2598
      3 O           9.4358   41.7986    6.9610 O.2     1  UNL1       -0.2708
      4 H           8.9413   41.6194   10.1140 H       1  UNL1        0.1569
      5 C           4.0018   42.9773    9.1622 C.ar    1  UNL1        0.1643
      6 C           5.6888   44.0755    8.5638 C.ar    1  UNL1        0.2195
      7 C           7.4867   42.5945    9.0072 C.ar    1  UNL1        0.1880
      8 N           3.5730   44.1914    8.7216 N.ar    1  UNL1       -0.1310
      9 N           4.6470   44.8938    8.3379 N.ar    1  UNL1       -0.1202
     10 N           6.2811   42.0472    9.3328 N.ar    1  UNL1       -0.1400
     11 N           5.3292   42.9237    9.0589 N.ar    1  UNL1       -0.1881
     12 S           7.3471   44.2008    8.3719 S.2     1  UNL1       -0.0111
     13 C           3.1321   41.8913    9.7052 C.3     1  UNL1        0.0677
     14 C           3.9503   40.3279   11.4704 C.3     1  UNL1        0.0005
     15 C           3.3629   41.6991   11.1952 C.3     1  UNL1        0.0080
     16 C          10.8764   40.7522    8.5531 C.3     1  UNL1        0.2413
     17 C          11.5663   41.3972    9.7566 C.3     1  UNL1        0.0532
     18 C          11.7732   40.4115   10.8959 C.3     1  UNL1        0.0044
     19 O          11.7620   40.6358    7.4405 O.3     1  UNL1       -0.4699
     20 C          12.9293   41.3949    7.3044 C.ar    1  UNL1        0.1391
     21 C          14.0880   41.1057    8.0442 C.ar    1  UNL1        0.0369
     22 C          15.2392   41.8819    7.8826 C.ar    1  UNL1        0.0031
     23 C          15.2406   42.9496    6.9811 C.ar    1  UNL1        0.0002
     24 C          14.0911   43.2409    6.2410 C.ar    1  UNL1        0.0031
     25 C          12.9396   42.4645    6.4025 C.ar    1  UNL1        0.0369
@<TRIPOS>BOND
     1    14    15    1
     2    15    13    1
     3    13     5    1
     4     6    12   ar
     5     7    12   ar
     6     7     2    1
     7    16     1    1
     8    16    17    1
     9    16    19    1
    10    17    18    1
    11    20    19    1
    12    21    22   ar
    13    23    24   ar
    14    25    20   ar
    15     8     9   ar
    16     2     1   am
    17    11    10   ar
    18    11     5   ar
    19    11     6   ar
    20     5     8   ar
    21     6     9   ar
    22     7    10   ar
    23     1     3    2
    24    20    21   ar
    25    22    23   ar
    26    24    25   ar
    27     2     4    1
@<TRIPOS>MOLECULE
MolPort-007-723-368 ChemDiv-E157-4858 MCULE-2177005398 PubChem-22517954
 25 27 0 0 0
SMALL
GASTEIGER

@<TRIPOS>ATOM
      1 C           9.8127   42.4692   10.5480 C.2     1  UNL1        0.2678
      2 N          10.3969   41.2629   10.0445 N.am    1  UNL1       -0.2598
      3 O          10.5005   43.5152   10.6936 O.2     1  UNL1       -0.2708
      4 H           9.7969   40.4893    9.9407 H       1  UNL1        0.1569
      5 C          14.9416   39.6060    9.9931 C.ar    1  UNL1        0.1643
      6 C          13.9651   41.0208    8.7867 C.ar    1  UNL1        0.2195
      7 C          11.7679   41.0700    9.6769 C.ar    1  UNL1        0.1880
      8 N          15.8357   40.0533    9.0698 N.ar    1  UNL1       -0.1310
      9 N          15.2159   40.9571    8.2996 N.ar    1  UNL1       -0.1202
     10 N          12.5711   40.1942   10.3455 N.ar    1  UNL1       -0.1400
     11 N          13.7752   40.2204    9.7988 N.ar    1  UNL1       -0.1881
     12 S          12.5866   41.8801    8.3819 S.2     1  UNL1       -0.0111
     13 C          15.2106   38.5705   11.0351 C.3     1  UNL1        0.0677
     14 C          17.6827   38.6157   10.6936 C.3     1  UNL1        0.0005
     15 C          16.5598   38.7982   11.6971 C.3     1  UNL1        0.0080
     16 C           8.3527   42.4852   10.8700 C.3     1  UNL1        0.2413
     17 C           8.1069   42.3470   12.3736 C.3     1  UNL1        0.0532
     18 C           8.8409   41.1553   12.9681 C.3     1  UNL1        0.0044
     19 O           7.6617   41.4794   10.1305 O.3     1  UNL1       -0.4699
     20 C           6.2670   41.3755   10.0918 C.ar    1  UNL1        0.1391
     21 C           5.5273   41.7854    8.9701 C.ar    1  UNL1        0.0369
     22 C           4.1346   41.6653    8.9621 C.ar    1  UNL1        0.0031
     23 C           3.4732   41.1345   10.0727 C.ar    1  UNL1        0.0002
     24 C           4.2043   40.7234   11.1909 C.ar    1  UNL1        0.0031
     25 C           5.5972   40.8433   11.1990 C.ar    1  UNL1        0.0369
@<TRIPOS>BOND
     1    14    15    1
     2    15    13    1
     3    13     5    1
     4     6    12   ar
     5     7    12   ar
     6     7     2    1
     7    16     1    1
     8    16    17    1
     9    16    19    1
    10    17    18    1
    11    20    19    1
    12    21    22   ar
    13    23    24   ar
    14    25    20   ar
    15     8     9   ar
    16     2     1   am
    17    11    10   ar
    18    11     5   ar
    19    11     6   ar
    20     5     8   ar
    21     6     9   ar
    22     7    10   ar
    23     1     3    2
    24    20    21   ar
    25    22    23   ar
    26    24    25   ar
    27     2     4    1
@<TRIPOS>MOLECULE
MolPort-007-723-368 ChemDiv-E157-4858 MCULE-2177005398 PubChem-22517954
 25 27 0 0 0
SMALL
GASTEIGER

@<TRIPOS>ATOM
      1 C           9.9265   42.3375    9.2185 C.2     1  UNL1        0.2678
      2 N           8.6989   41.8753    8.6446 N.am    1  UNL1       -0.2598
      3 O           9.9907   43.4462    9.8144 O.2     1  UNL1       -0.2708
      4 H           8.7176   40.9926    8.2090 H       1  UNL1        0.1569
      5 C           3.9880   42.8388    9.1747 C.ar    1  UNL1        0.1643
      6 C           5.5815   44.0279    8.4986 C.ar    1  UNL1        0.2195
      7 C           7.4461   42.5699    8.6413 C.ar    1  UNL1        0.1880
      8 N           3.4909   44.0700    8.8764 N.ar    1  UNL1       -0.1310
      9 N           4.5051   44.8304    8.4436 N.ar    1  UNL1       -0.1202
     10 N           6.2919   41.9648    9.0420 N.ar    1  UNL1       -0.1400
     11 N           5.2987   42.8317    8.9348 N.ar    1  UNL1       -0.1881
     12 S           7.2085   44.2154    8.1518 S.2     1  UNL1       -0.0111
     13 C           3.2014   41.6898    9.7148 C.3     1  UNL1        0.0677
     14 C           4.0610   40.2776   11.5847 C.3     1  UNL1        0.0005
     15 C           3.3645   41.5754   11.2217 C.3     1  UNL1        0.0080
     16 C          11.1375   41.4648    9.1332 C.3     1  UNL1        0.2413
     17 C          11.7119   41.4372    7.7155 C.3     1  UNL1        0.0532
     18 C          13.2319   41.4809    7.7112 C.3     1  UNL1        0.0044
     19 O          10.8473   40.1508    9.6077 O.3     1  UNL1       -0.4699
     20 C          11.8064   39.3140   10.1885 C.ar    1  UNL1        0.1391
     21 C          11.8004   37.9255    9.9754 C.ar    1  UNL1        0.0369
     22 C          12.7750   37.1174   10.5681 C.ar    1  UNL1        0.0031
     23 C          13.7611   37.6908   11.3752 C.ar    1  UNL1        0.0002
     24 C          13.7729   39.0721   11.5894 C.ar    1  UNL1        0.0031
     25 C          12.7983   39.8804   10.9966 C.ar    1  UNL1        0.0369
@<TRIPOS>BOND
     1    14    15    1
     2    15    13    1
     3    13     5    1
     4     6    12   ar
     5     7    12   ar
     6     7     2    1
     7    16     1    1
     8    16    17    1
     9    16    19    1
    10    17    18    1
    11    20    19    1
    12    21    22   ar
    13    23    24   ar
    14    25    20   ar
    15     8     9   ar
    16     2     1   am
    17    11    10   ar
    18    11     5   ar
    19    11     6   ar
    20     5     8   ar
    21     6     9   ar
    22     7    10   ar
    23     1     3    2
    24    20    21   ar
    25    22    23   ar
    26    24    25   ar
    27     2     4    1
@<TRIPOS>MOLECULE
MolPort-007-723-368 ChemDiv-E157-4858 MCULE-2177005398 PubChem-22517954
 25 27 0 0 0
SMALL
GASTEIGER

@<TRIPOS>ATOM
      1 C           9.6824   42.4602   10.4745 C.2     1  UNL1        0.2678
      2 N          10.2523   41.2460    9.9737 N.am    1  UNL1       -0.2598
      3 O          10.4058   43.4551   10.7490 O.2     1  UNL1       -0.2708
      4 H           9.6263   40.5154    9.7647 H       1  UNL1        0.1569
      5 C          14.7734   39.6299   10.5650 C.ar    1  UNL1        0.1643
      6 C          13.8948   40.7707    9.0363 C.ar    1  UNL1        0.2195
      7 C          11.6430   40.9886    9.7465 C.ar    1  UNL1        0.1880
      8 N          15.7323   39.8867    9.6342 N.ar    1  UNL1       -0.1310
      9 N          15.1750   40.6155    8.6583 N.ar    1  UNL1       -0.1202
     10 N          12.3904   40.2676   10.6300 N.ar    1  UNL1       -0.1400
     11 N          13.6290   40.1884   10.1727 N.ar    1  UNL1       -0.1881
     12 S          12.5554   41.5262    8.3747 S.2     1  UNL1       -0.0111
     13 C          14.9611   38.8250   11.8090 C.3     1  UNL1        0.0677
     14 C          13.5611   36.8457   11.2158 C.3     1  UNL1        0.0005
     15 C          14.9677   37.3364   11.5017 C.3     1  UNL1        0.0080
     16 C           8.1988   42.5485   10.6373 C.3     1  UNL1        0.2413
     17 C           7.6951   41.5995   11.7264 C.3     1  UNL1        0.0532
     18 C           8.7732   41.2750   12.7485 C.3     1  UNL1        0.0044
     19 O           7.5397   42.3168    9.3932 O.3     1  UNL1       -0.4699
     20 C           6.3839   42.9984    8.9969 C.ar    1  UNL1        0.1391
     21 C           5.1073   42.5965    9.4238 C.ar    1  UNL1        0.0369
     22 C           3.9724   43.3010    9.0121 C.ar    1  UNL1        0.0031
     23 C           4.1056   44.4109    8.1735 C.ar    1  UNL1        0.0002
     24 C           5.3735   44.8163    7.7470 C.ar    1  UNL1        0.0031
     25 C           6.5087   44.1117    8.1588 C.ar    1  UNL1        0.0369
@<TRIPOS>BOND
     1    14    15    1
     2    15    13    1
     3    13     5    1
     4     6    12   ar
     5     7    12   ar
     6     7     2    1
     7    16     1    1
     8    16    17    1
     9    16    19    1
    10    17    18    1
    11    20    19    1
    12    21    22   ar
    13    23    24   ar
    14    25    20   ar
    15     8     9   ar
    16     2     1   am
    17    11    10   ar
    18    11     5   ar
    19    11     6   ar
    20     5     8   ar
    21     6     9   ar
    22     7    10   ar
    23     1     3    2
    24    20    21   ar
    25    22    23   ar
    26    24    25   ar
    27     2     4    1
@<TRIPOS>MOLECULE
MolPort-007-723-368 ChemDiv-E157-4858 MCULE-2177005398 PubChem-22517954
 25 27 0 0 0
SMALL
GASTEIGER

@<TRIPOS>ATOM
      1 C          13.5009   40.1488    8.6309 C.2     1  UNL1        0.2678
      2 N          12.8815   39.1163    7.8562 N.am    1  UNL1       -0.2598
      3 O          12.8512   41.1622    9.0043 O.2     1  UNL1       -0.2708
      4 H          13.4442   38.3457    7.6137 H       1  UNL1        0.1569
      5 C           9.0156   39.3163    4.9550 C.ar    1  UNL1        0.1643
      6 C           9.1858   38.9834    7.0215 C.ar    1  UNL1        0.2195
      7 C          11.5241   39.0932    7.3990 C.ar    1  UNL1        0.1880
      8 N           7.7625   39.1258    5.4502 N.ar    1  UNL1       -0.1310
      9 N           7.8678   38.9145    6.7687 N.ar    1  UNL1       -0.1202
     10 N          11.2078   39.2937    6.0880 N.ar    1  UNL1       -0.1400
     11 N           9.8941   39.2208    5.9524 N.ar    1  UNL1       -0.1881
     12 S          10.1315   38.8174    8.3929 S.2     1  UNL1       -0.0111
     13 C           9.3576   39.5600    3.5217 C.3     1  UNL1        0.0677
     14 C           9.8723   37.1269    3.3093 C.3     1  UNL1        0.0005
     15 C          10.3582   38.5337    3.0159 C.3     1  UNL1        0.0080
     16 C          14.9343   39.9937    9.0266 C.3     1  UNL1        0.2413
     17 C          15.0965   38.9911   10.1707 C.3     1  UNL1        0.0532
     18 C          14.1633   39.2909   11.3333 C.3     1  UNL1        0.0044
     19 O          15.5078   41.2590    9.3523 O.3     1  UNL1       -0.4699
     20 C          16.0903   42.1061    8.4033 C.ar    1  UNL1        0.1391
     21 C          15.3514   42.6303    7.3297 C.ar    1  UNL1        0.0369
     22 C          15.9626   43.4766    6.4001 C.ar    1  UNL1        0.0031
     23 C          17.3138   43.8052    6.5378 C.ar    1  UNL1        0.0002
     24 C          18.0536   43.2879    7.6051 C.ar    1  UNL1        0.0031
     25 C          17.4423   42.4415    8.5349 C.ar    1  UNL1        0.0369
@<TRIPOS>BOND
     1    14    15    1
     2    15    13    1
     3    13     5    1
     4     6    12   ar
     5     7    12   ar
     6     7     2    1
     7    16     1    1
     8    16    17    1
     9    16    19    1
    10    17    18    1
    11    20    19    1
    12    21    22   ar
    13    23    24   ar
    14    25    20   ar
    15     8     9   ar
    16     2     1   am
    17    11    10   ar
    18    11     5   ar
    19    11     6   ar
    20     5     8   ar
    21     6     9   ar
    22     7    10   ar
    23     1     3    2
    24    20    21   ar
    25    22    23   ar
    26    24    25   ar
    27     2     4    1
@<TRIPOS>MOLECULE
MolPort-007-723-368 ChemDiv-E157-4858 MCULE-2177005398 PubChem-22517954
 25 27 0 0 0
SMALL
GASTEIGER

@<TRIPOS>ATOM
      1 C           9.2605   41.8988    8.3921 C.2     1  UNL1        0.2678
      2 N          10.1910   40.9313    7.8940 N.am    1  UNL1       -0.2598
      3 O           9.6458   42.8739    9.0915 O.2     1  UNL1       -0.2708
      4 H           9.8223   40.2054    7.3405 H       1  UNL1        0.1569
      5 C          14.8917   42.0426    7.6284 C.ar    1  UNL1        0.1643
      6 C          13.8688   40.5900    8.7482 C.ar    1  UNL1        0.2195
      7 C          11.6053   40.9147    8.1212 C.ar    1  UNL1        0.1880
      8 N          15.8095   41.3712    8.3760 N.ar    1  UNL1       -0.1310
      9 N          15.1600   40.4430    9.0905 N.ar    1  UNL1       -0.1202
     10 N          12.4423   41.7805    7.4818 N.ar    1  UNL1       -0.1400
     11 N          13.6820   41.5419    7.8765 N.ar    1  UNL1       -0.1881
     12 S          12.4397   39.8425    9.1970 S.2     1  UNL1       -0.0111
     13 C          15.1847   43.1784    6.7039 C.3     1  UNL1        0.0677
     14 C          17.5474   43.8524    6.2646 C.3     1  UNL1        0.0005
     15 C          16.3634   43.9988    7.2016 C.3     1  UNL1        0.0080
     16 C           7.8142   41.7579    8.0404 C.3     1  UNL1        0.2413
     17 C           7.5887   41.8715    6.5315 C.3     1  UNL1        0.0532
     18 C           6.9102   43.1775    6.1492 C.3     1  UNL1        0.0044
     19 O           7.0250   42.7028    8.7617 O.3     1  UNL1       -0.4699
     20 C           5.9148   42.3461    9.5348 C.ar    1  UNL1        0.1391
     21 C           4.6597   42.9481    9.3456 C.ar    1  UNL1        0.0369
     22 C           3.5694   42.5669   10.1330 C.ar    1  UNL1        0.0031
     23 C           3.7256   41.5822   11.1121 C.ar    1  UNL1        0.0002
     24 C           4.9718   40.9785   11.3035 C.ar    1  UNL1        0.0031
     25 C           6.0623   41.3597   10.5160 C.ar    1  UNL1        0.0369
@<TRIPOS>BOND
     1    14    15    1
     2    15    13    1
     3    13     5    1
     4     6    12   ar
     5     7    12   ar
     6     7     2    1
     7    16     1    1
     8    16    17    1
     9    16    19    1
    10    17    18    1
    11    20    19    1
    12    21    22   ar
    13    23    24   ar
    14    25    20   ar
    15     8     9   ar
    16     2     1   am
    17    11    10   ar
    18    11     5   ar
    19    11     6   ar
    20     5     8   ar
    21     6     9   ar
    22     7    10   ar
    23     1     3    2
    24    20    21   ar
    25    22    23   ar
    26    24    25   ar
    27     2     4    1
@<TRIPOS>MOLECULE
MolPort-007-723-368 ChemDiv-E157-4858 MCULE-2177005398 PubChem-22517954
 25 27 0 0 0
SMALL
GASTEIGER

@<TRIPOS>ATOM
      1 C           9.6682   40.9711    8.1718 C.2     1  UNL1        0.2678
      2 N           8.5366   41.1122    9.0375 N.am    1  UNL1       -0.2598
      3 O           9.8092   41.7069    7.1583 O.2     1  UNL1       -0.2708
      4 H           8.4995   40.5154    9.8197 H       1  UNL1        0.1569
      5 C           4.1667   43.1581    9.3838 C.ar    1  UNL1        0.1643
      6 C           5.9162   43.7769    8.4007 C.ar    1  UNL1        0.2195
      7 C           7.4529   42.0355    8.8785 C.ar    1  UNL1        0.1880
      8 N           3.9091   44.3554    8.7903 N.ar    1  UNL1       -0.1310
      9 N           5.0231   44.7520    8.1613 N.ar    1  UNL1       -0.1202
     10 N           6.2313   41.8076    9.4394 N.ar    1  UNL1       -0.1400
     11 N           5.4288   42.8130    9.1317 N.ar    1  UNL1       -0.1881
     12 S           7.5191   43.5222    7.9904 S.2     1  UNL1       -0.0111
     13 C           3.2039   42.3718   10.2117 C.3     1  UNL1        0.0677
     14 C           3.7122   40.0401   10.9429 C.3     1  UNL1        0.0005
     15 C           3.2035   40.9068    9.8066 C.3     1  UNL1        0.0080
     16 C          10.7110   39.9532    8.5060 C.3     1  UNL1        0.2413
     17 C          10.1137   38.5484    8.6070 C.3     1  UNL1        0.0532
     18 C          11.0861   37.5541    9.2220 C.3     1  UNL1        0.0044
     19 O          11.4059   40.3152    9.6985 O.3     1  UNL1       -0.4699
     20 C          12.7797   40.1197    9.8772 C.ar    1  UNL1        0.1391
     21 C          13.7167   40.5523    8.9241 C.ar    1  UNL1        0.0369
     22 C          15.0829   40.3443    9.1343 C.ar    1  UNL1        0.0031
     23 C          15.5211   39.7049   10.2970 C.ar    1  UNL1        0.0002
     24 C          14.5933   39.2739   11.2496 C.ar    1  UNL1        0.0031
     25 C          13.2268   39.4820   11.0395 C.ar    1  UNL1        0.0369
@<TRIPOS>BOND
     1    14    15    1
     2    15    13    1
     3    13     5    1
     4     6    12   ar
     5     7    12   ar
     6     7     2    1
     7    16     1    1
     8    16    17    1
     9    16    19    1
    10    17    18    1
    11    20    19    1
    12    21    22   ar
    13    23    24   ar
    14    25    20   ar
    15     8     9   ar
    16     2     1   am
    17    11    10   ar
    18    11     5   ar
    19    11     6   ar
    20     5     8   ar
    21     6     9   ar
    22     7    10   ar
    23     1     3    2
    24    20    21   ar
    25    22    23   ar
    26    24    25   ar
    27     2     4    1
