@<TRIPOS>MOLECULE
MolPort-005-088-836 CSSS00159778976 MCULE-8090982786 PubChem-45214854
 32 35 0 0 0
SMALL
GASTEIGER

@<TRIPOS>ATOM
      1 C          10.6884   40.8670    9.9549 C.ar    1  UNL1        0.1326
      2 C          10.4408   41.6810   11.0445 C.ar    1  UNL1        0.0565
      3 C           9.1283   42.0943   10.8450 C.ar    1  UNL1        0.1230
      4 N           8.6479   41.5528    9.7058 N.ar    1  UNL1       -0.1666
      5 N           9.5996   40.8051    9.1762 N.ar    1  UNL1       -0.2394
      6 C           9.4909   40.0799    7.9127 C.3     1  UNL1        0.1093
      7 C           9.0235   41.0032    6.7764 C.3     1  UNL1        0.0418
      8 C          10.1708   41.4496    5.8676 C.3     1  UNL1        0.0741
      9 C          11.8832   40.2321    6.9743 C.3     1  UNL1        0.0741
     10 C          10.7937   39.3349    7.5912 C.3     1  UNL1        0.0418
     11 N          11.3997   41.5746    6.6438 N.3     1  UNL1       -0.2725
     12 C          12.4005   42.1838    5.7836 C.3     1  UNL1        0.0742
     13 C          13.5552   42.7265    6.6167 C.3     1  UNL1        0.0437
     14 C          14.4438   43.6526    5.7947 C.3     1  UNL1        0.1289
     15 C          16.9051   43.9647    5.7378 C.ar    1  UNL1        0.0967
     16 C          17.9259   44.0330    6.6696 C.ar    1  UNL1        0.0427
     17 C          17.3019   43.8805    7.8997 C.ar    1  UNL1        0.1217
     18 N          15.7566   43.7857    6.4070 N.ar    1  UNL1       -0.2494
     19 N          15.9787   43.7301    7.7066 N.ar    1  UNL1       -0.1677
     20 C          12.8681   39.7251   10.6195 C.2     1  UNL1        0.2587
     21 O          12.6661   39.8817   11.8545 O.2     1  UNL1       -0.2717
     22 N          11.9150   40.1891    9.6563 N.am    1  UNL1       -0.2673
     23 H          12.1204   40.0283    8.7069 H       1  UNL1        0.1563
     24 C          14.1191   39.0497   10.1375 C.3     1  UNL1        0.2135
     25 C          13.9008   37.5782    9.9640 C.ar    1  UNL1        0.0134
     26 C          12.8351   36.9255   10.6019 C.ar    1  UNL1       -0.0015
     27 C          12.6527   35.5499   10.4327 C.ar    1  UNL1       -0.0002
     28 C          13.5330   34.8223    9.6268 C.ar    1  UNL1       -0.0000
     29 C          14.5958   35.4698    8.9900 C.ar    1  UNL1       -0.0002
     30 C          14.7794   36.8454    9.1588 C.ar    1  UNL1       -0.0015
     31 C          15.5743   40.5111    9.3268 C.3     1  UNL1        0.1751
     32 O          14.5751   39.6158    8.9414 O.3     1  UNL1       -0.3400
@<TRIPOS>BOND
     1    31    32    1
     2    24    32    1
     3    24    20    1
     4    24    25    1
     5    20    22   am
     6     2     3   ar
     7     6     5    1
     8     6     7    1
     9     7     8    1
    10     8    11    1
    11    12    11    1
    12    12    13    1
    13    13    14    1
    14    14    18    1
    15    16    17   ar
    16     9    11    1
    17     9    10    1
    18    10     6    1
    19    26    27   ar
    20    28    29   ar
    21    30    25   ar
    22    22     1    1
    23     5     4   ar
    24     5     1   ar
    25    18    15   ar
    26    18    19   ar
    27    20    21    2
    28     1     2   ar
    29     3     4   ar
    30    15    16   ar
    31    17    19   ar
    32    25    26   ar
    33    27    28   ar
    34    29    30   ar
    35    22    23    1
@<TRIPOS>MOLECULE
MolPort-005-088-836 CSSS00159778976 MCULE-8090982786 PubChem-45214854
 32 35 0 0 0
SMALL
GASTEIGER

@<TRIPOS>ATOM
      1 C           9.8349   40.8104   10.3599 C.ar    1  UNL1        0.1326
      2 C           9.9990   41.0987   11.7019 C.ar    1  UNL1        0.0565
      3 C          11.3270   40.7641   11.9422 C.ar    1  UNL1        0.1230
      4 N          11.8948   40.3071   10.8062 N.ar    1  UNL1       -0.1666
      5 N          10.9835   40.3446    9.8505 N.ar    1  UNL1       -0.2394
      6 C          11.1895   39.8920    8.4769 C.3     1  UNL1        0.1093
      7 C          11.2215   41.0757    7.4970 C.3     1  UNL1        0.0418
      8 C          12.6426   41.4558    7.0755 C.3     1  UNL1        0.0741
      9 C          13.7550   39.7605    8.3116 C.3     1  UNL1        0.0741
     10 C          12.4247   38.9867    8.3745 C.3     1  UNL1        0.0418
     11 N          13.5701   41.2069    8.1739 N.3     1  UNL1       -0.2725
     12 C          14.8580   41.7629    7.7935 C.3     1  UNL1        0.0742
     13 C          15.9390   41.3085    8.7664 C.3     1  UNL1        0.0437
     14 C          17.1220   42.2695    8.7683 C.3     1  UNL1        0.1289
     15 C          16.3057   44.1706    7.3978 C.ar    1  UNL1        0.0967
     16 C          16.5835   44.6931    6.1469 C.ar    1  UNL1        0.0427
     17 C          17.5774   43.8757    5.6276 C.ar    1  UNL1        0.1217
     18 N          17.1059   43.1100    7.5811 N.ar    1  UNL1       -0.2494
     19 N          17.8738   42.9181    6.5252 N.ar    1  UNL1       -0.1677
     20 C           8.0036   42.1967    9.2545 C.2     1  UNL1        0.2587
     21 O           8.5087   43.2953    9.6133 O.2     1  UNL1       -0.2717
     22 N           8.6311   40.9553    9.5960 N.am    1  UNL1       -0.2673
     23 H           8.1980   40.1302    9.2785 H       1  UNL1        0.1563
     24 C           6.7283   42.1732    8.4631 C.3     1  UNL1        0.2135
     25 C           5.5379   42.0843    9.3677 C.ar    1  UNL1        0.0134
     26 C           5.5730   41.3052   10.5341 C.ar    1  UNL1       -0.0015
     27 C           4.4489   41.2298   11.3615 C.ar    1  UNL1       -0.0002
     28 C           3.2871   41.9315   11.0274 C.ar    1  UNL1       -0.0000
     29 C           3.2490   42.7086    9.8659 C.ar    1  UNL1       -0.0002
     30 C           4.3725   42.7844    9.0374 C.ar    1  UNL1       -0.0015
     31 C           7.0853   42.8651    6.3884 C.3     1  UNL1        0.1751
     32 O           6.6230   43.2953    7.6333 O.3     1  UNL1       -0.3400
@<TRIPOS>BOND
     1    31    32    1
     2    24    32    1
     3    24    20    1
     4    24    25    1
     5    20    22   am
     6     2     3   ar
     7     6     5    1
     8     6     7    1
     9     7     8    1
    10     8    11    1
    11    12    11    1
    12    12    13    1
    13    13    14    1
    14    14    18    1
    15    16    17   ar
    16     9    11    1
    17     9    10    1
    18    10     6    1
    19    26    27   ar
    20    28    29   ar
    21    30    25   ar
    22    22     1    1
    23     5     4   ar
    24     5     1   ar
    25    18    15   ar
    26    18    19   ar
    27    20    21    2
    28     1     2   ar
    29     3     4   ar
    30    15    16   ar
    31    17    19   ar
    32    25    26   ar
    33    27    28   ar
    34    29    30   ar
    35    22    23    1
@<TRIPOS>MOLECULE
MolPort-005-088-836 CSSS00159778976 MCULE-8090982786 PubChem-45214854
 32 35 0 0 0
SMALL
GASTEIGER

@<TRIPOS>ATOM
      1 C          10.5022   39.3773    5.2883 C.ar    1  UNL1        0.1326
      2 C          10.8094   39.2304    3.9486 C.ar    1  UNL1        0.0565
      3 C           9.5622   39.1286    3.3423 C.ar    1  UNL1        0.1230
      4 N           8.5926   39.2092    4.2778 N.ar    1  UNL1       -0.1666
      5 N           9.1726   39.3660    5.4544 N.ar    1  UNL1       -0.2394
      6 C           8.4686   39.4520    6.7316 C.3     1  UNL1        0.1093
      7 C           9.0442   40.5719    7.6130 C.3     1  UNL1        0.0418
      8 C           8.1821   41.8361    7.6005 C.3     1  UNL1        0.0741
      9 C           6.4833   40.9921    6.1719 C.3     1  UNL1        0.0741
     10 C           6.9530   39.5667    6.5188 C.3     1  UNL1        0.0418
     11 N           7.5467   41.9914    6.2964 N.3     1  UNL1       -0.2725
     12 C           6.9052   43.2955    6.2748 C.3     1  UNL1        0.0742
     13 C           6.7339   43.8248    7.6934 C.3     1  UNL1        0.0437
     14 C           5.2890   44.2280    7.9633 C.3     1  UNL1        0.1289
     15 C           5.2827   42.3023    9.5287 C.ar    1  UNL1        0.0967
     16 C           4.3364   41.6279   10.2802 C.ar    1  UNL1        0.0427
     17 C           3.1382   42.2767   10.0171 C.ar    1  UNL1        0.1217
     18 N           4.6526   43.2885    8.8735 N.ar    1  UNL1       -0.2494
     19 N           3.3632   43.2844    9.1542 N.ar    1  UNL1       -0.1677
     20 C          12.0346   40.7283    6.8126 C.2     1  UNL1        0.2587
     21 O          11.7524   41.8247    6.2567 O.2     1  UNL1       -0.2717
     22 N          11.4341   39.5059    6.3693 N.am    1  UNL1       -0.2673
     23 H          11.6830   38.6828    6.8487 H       1  UNL1        0.1563
     24 C          13.0123   40.6871    7.9509 C.3     1  UNL1        0.2135
     25 C          14.1739   41.5966    7.6926 C.ar    1  UNL1        0.0134
     26 C          14.0893   42.6250    6.7420 C.ar    1  UNL1       -0.0015
     27 C          15.1872   43.4587    6.5107 C.ar    1  UNL1       -0.0002
     28 C          16.3722   43.2685    7.2273 C.ar    1  UNL1       -0.0000
     29 C          16.4596   42.2446    8.1751 C.ar    1  UNL1       -0.0002
     30 C          15.3623   41.4099    8.4070 C.ar    1  UNL1       -0.0015
     31 C          13.1059   40.3078   10.1321 C.3     1  UNL1        0.1751
     32 O          12.3971   41.0199    9.1631 O.3     1  UNL1       -0.3400
@<TRIPOS>BOND
     1    31    32    1
     2    24    32    1
     3    24    20    1
     4    24    25    1
     5    20    22   am
     6     2     3   ar
     7     6     5    1
     8     6     7    1
     9     7     8    1
    10     8    11    1
    11    12    11    1
    12    12    13    1
    13    13    14    1
    14    14    18    1
    15    16    17   ar
    16     9    11    1
    17     9    10    1
    18    10     6    1
    19    26    27   ar
    20    28    29   ar
    21    30    25   ar
    22    22     1    1
    23     5     4   ar
    24     5     1   ar
    25    18    15   ar
    26    18    19   ar
    27    20    21    2
    28     1     2   ar
    29     3     4   ar
    30    15    16   ar
    31    17    19   ar
    32    25    26   ar
    33    27    28   ar
    34    29    30   ar
    35    22    23    1
@<TRIPOS>MOLECULE
MolPort-005-088-836 CSSS00159778976 MCULE-8090982786 PubChem-45214854
 32 35 0 0 0
SMALL
GASTEIGER

@<TRIPOS>ATOM
      1 C           8.9309   41.1665   10.2901 C.ar    1  UNL1        0.1326
      2 C           9.5372   41.4825   11.4915 C.ar    1  UNL1        0.0565
      3 C          10.8465   41.0491   11.3143 C.ar    1  UNL1        0.1230
      4 N          10.9864   40.5122   10.0839 N.ar    1  UNL1       -0.1666
      5 N           9.8205   40.5934    9.4680 N.ar    1  UNL1       -0.2394
      6 C           9.5425   40.0827    8.1279 C.3     1  UNL1        0.1093
      7 C           9.1870   41.2210    7.1583 C.3     1  UNL1        0.0418
      8 C          10.3539   41.6074    6.2469 C.3     1  UNL1        0.0741
      9 C          11.8868   39.9905    7.0685 C.3     1  UNL1        0.0741
     10 C          10.6910   39.1963    7.6268 C.3     1  UNL1        0.0418
     11 N          11.6174   41.4255    6.9533 N.3     1  UNL1       -0.2725
     12 C          12.6686   41.9870    6.1212 C.3     1  UNL1        0.0742
     13 C          13.7878   42.5487    6.9893 C.3     1  UNL1        0.0437
     14 C          14.8106   43.3074    6.1519 C.3     1  UNL1        0.1289
     15 C          17.0643   44.2705    6.5416 C.ar    1  UNL1        0.0967
     16 C          18.0948   44.0702    7.4432 C.ar    1  UNL1        0.0427
     17 C          17.6439   43.0663    8.2885 C.ar    1  UNL1        0.1217
     18 N          16.0748   43.4236    6.8620 N.ar    1  UNL1       -0.2494
     19 N          16.4091   42.6912    7.9075 N.ar    1  UNL1       -0.1677
     20 C           6.4859   41.5952   10.8694 C.2     1  UNL1        0.2587
     21 O           6.7017   41.6169   12.1118 O.2     1  UNL1       -0.2717
     22 N           7.5578   41.3844    9.9429 N.am    1  UNL1       -0.2673
     23 H           7.3316   41.3896    8.9848 H       1  UNL1        0.1563
     24 C           5.0945   41.7873   10.3399 C.3     1  UNL1        0.2135
     25 C           5.0528   42.8943    9.3319 C.ar    1  UNL1        0.0134
     26 C           6.2136   43.3013    8.6571 C.ar    1  UNL1       -0.0015
     27 C           6.1549   44.3414    7.7250 C.ar    1  UNL1       -0.0002
     28 C           4.9381   44.9778    7.4638 C.ar    1  UNL1       -0.0000
     29 C           3.7798   44.5745    8.1347 C.ar    1  UNL1       -0.0002
     30 C           3.8374   43.5347    9.0674 C.ar    1  UNL1       -0.0015
     31 C           3.5887   40.1929   10.6580 C.3     1  UNL1        0.1751
     32 O           4.5941   40.6053    9.7819 O.3     1  UNL1       -0.3400
@<TRIPOS>BOND
     1    31    32    1
     2    24    32    1
     3    24    20    1
     4    24    25    1
     5    20    22   am
     6     2     3   ar
     7     6     5    1
     8     6     7    1
     9     7     8    1
    10     8    11    1
    11    12    11    1
    12    12    13    1
    13    13    14    1
    14    14    18    1
    15    16    17   ar
    16     9    11    1
    17     9    10    1
    18    10     6    1
    19    26    27   ar
    20    28    29   ar
    21    30    25   ar
    22    22     1    1
    23     5     4   ar
    24     5     1   ar
    25    18    15   ar
    26    18    19   ar
    27    20    21    2
    28     1     2   ar
    29     3     4   ar
    30    15    16   ar
    31    17    19   ar
    32    25    26   ar
    33    27    28   ar
    34    29    30   ar
    35    22    23    1
@<TRIPOS>MOLECULE
MolPort-005-088-836 CSSS00159778976 MCULE-8090982786 PubChem-45214854
 32 35 0 0 0
SMALL
GASTEIGER

@<TRIPOS>ATOM
      1 C           9.0736   40.0554    7.7086 C.ar    1  UNL1        0.1326
      2 C           8.5449   39.6020    6.5145 C.ar    1  UNL1        0.0565
      3 C           9.6720   39.3202    5.7506 C.ar    1  UNL1        0.1230
      4 N          10.7854   39.5974    6.4613 N.ar    1  UNL1       -0.1666
      5 N          10.4122   40.0371    7.6499 N.ar    1  UNL1       -0.2394
      6 C          11.3214   40.4851    8.7019 C.3     1  UNL1        0.1093
      7 C          12.7067   39.8352    8.5579 C.3     1  UNL1        0.0418
      8 C          13.7385   40.7753    7.9309 C.3     1  UNL1        0.0741
      9 C          12.2983   42.6505    7.7101 C.3     1  UNL1        0.0741
     10 C          11.3749   42.0176    8.7681 C.3     1  UNL1        0.0418
     11 N          13.0861   41.6606    6.9722 N.3     1  UNL1       -0.2725
     12 C          14.1291   42.3896    6.2698 C.3     1  UNL1        0.0742
     13 C          13.8240   43.8825    6.2706 C.3     1  UNL1        0.0437
     14 C          15.0123   44.6909    5.7631 C.3     1  UNL1        0.1289
     15 C          17.3557   43.8865    5.9047 C.ar    1  UNL1        0.0967
     16 C          18.2690   43.6411    6.9149 C.ar    1  UNL1        0.0427
     17 C          17.6024   43.9613    8.0891 C.ar    1  UNL1        0.1217
     18 N          16.2262   44.3281    6.4777 N.ar    1  UNL1       -0.2494
     19 N          16.3576   44.3757    7.7899 N.ar    1  UNL1       -0.1677
     20 C           7.8127   41.8233    9.0435 C.2     1  UNL1        0.2587
     21 O           7.9638   42.7114    8.1609 O.2     1  UNL1       -0.2717
     22 N           8.3373   40.5041    8.8532 N.am    1  UNL1       -0.2673
     23 H           8.1783   39.8491    9.5707 H       1  UNL1        0.1563
     24 C           7.0801   42.1379   10.3154 C.3     1  UNL1        0.2135
     25 C           5.6097   41.8996   10.1598 C.ar    1  UNL1        0.0134
     26 C           4.9876   40.7986   10.7676 C.ar    1  UNL1       -0.0015
     27 C           3.6151   40.5899   10.6043 C.ar    1  UNL1       -0.0002
     28 C           2.8600   41.4791    9.8342 C.ar    1  UNL1       -0.0000
     29 C           3.4770   42.5769    9.2272 C.ar    1  UNL1       -0.0002
     30 C           4.8496   42.7864    9.3895 C.ar    1  UNL1       -0.0015
     31 C           8.7007   42.1012   11.8263 C.3     1  UNL1        0.1751
     32 O           7.5804   41.3924   11.3891 O.3     1  UNL1       -0.3400
@<TRIPOS>BOND
     1    31    32    1
     2    24    32    1
     3    24    20    1
     4    24    25    1
     5    20    22   am
     6     2     3   ar
     7     6     5    1
     8     6     7    1
     9     7     8    1
    10     8    11    1
    11    12    11    1
    12    12    13    1
    13    13    14    1
    14    14    18    1
    15    16    17   ar
    16     9    11    1
    17     9    10    1
    18    10     6    1
    19    26    27   ar
    20    28    29   ar
    21    30    25   ar
    22    22     1    1
    23     5     4   ar
    24     5     1   ar
    25    18    15   ar
    26    18    19   ar
    27    20    21    2
    28     1     2   ar
    29     3     4   ar
    30    15    16   ar
    31    17    19   ar
    32    25    26   ar
    33    27    28   ar
    34    29    30   ar
    35    22    23    1
@<TRIPOS>MOLECULE
MolPort-005-088-836 CSSS00159778976 MCULE-8090982786 PubChem-45214854
 32 35 0 0 0
SMALL
GASTEIGER

@<TRIPOS>ATOM
      1 C          11.0266   41.3001    7.4532 C.ar    1  UNL1        0.1326
      2 C          10.2581   40.8419    6.3995 C.ar    1  UNL1        0.0565
      3 C           9.0300   41.4608    6.6046 C.ar    1  UNL1        0.1230
      4 N           9.0860   42.2288    7.7132 N.ar    1  UNL1       -0.1666
      5 N          10.3030   42.1295    8.2175 N.ar    1  UNL1       -0.2394
      6 C          10.7573   42.7775    9.4455 C.3     1  UNL1        0.1093
      7 C           9.7024   43.7567    9.9843 C.3     1  UNL1        0.0418
      8 C           8.9031   43.1794   11.1546 C.3     1  UNL1        0.0741
      9 C          10.0416   41.0981   11.2604 C.3     1  UNL1        0.0741
     10 C          11.2064   41.7392   10.4827 C.3     1  UNL1        0.0418
     11 N           8.7520   41.7377   10.9899 N.3     1  UNL1       -0.2725
     12 C           7.8285   41.2749   12.0125 C.3     1  UNL1        0.0742
     13 C           6.4437   41.8676   11.7827 C.3     1  UNL1        0.0437
     14 C           5.4250   40.7831   11.4524 C.3     1  UNL1        0.1289
     15 C           3.3894   40.5718   10.0487 C.ar    1  UNL1        0.0967
     16 C           2.6485   41.4061    9.2302 C.ar    1  UNL1        0.0427
     17 C           3.2931   42.6336    9.2886 C.ar    1  UNL1        0.1217
     18 N           4.4036   41.2921   10.5503 N.ar    1  UNL1       -0.2494
     19 N           4.3612   42.5319   10.1007 N.ar    1  UNL1       -0.1677
     20 C          13.5060   41.8451    7.6830 C.2     1  UNL1        0.2587
     21 O          13.3473   43.0611    7.3882 O.2     1  UNL1       -0.2717
     22 N          12.3880   40.9511    7.7328 N.am    1  UNL1       -0.2673
     23 H          12.5708   40.0160    7.9805 H       1  UNL1        0.1563
     24 C          14.8768   41.3126    7.9842 C.3     1  UNL1        0.2135
     25 C          15.9264   42.3417    7.6971 C.ar    1  UNL1        0.0134
     26 C          15.8528   43.1492    6.5521 C.ar    1  UNL1       -0.0015
     27 C          16.8465   44.0992    6.2986 C.ar    1  UNL1       -0.0002
     28 C          17.9158   44.2459    7.1867 C.ar    1  UNL1       -0.0000
     29 C          17.9919   43.4427    8.3284 C.ar    1  UNL1       -0.0002
     30 C          16.9989   42.4920    8.5828 C.ar    1  UNL1       -0.0015
     31 C          14.9803   39.4850    9.2330 C.3     1  UNL1        0.1751
     32 O          14.9744   40.8787    9.3112 O.3     1  UNL1       -0.3400
@<TRIPOS>BOND
     1    31    32    1
     2    24    32    1
     3    24    20    1
     4    24    25    1
     5    20    22   am
     6     2     3   ar
     7     6     5    1
     8     6     7    1
     9     7     8    1
    10     8    11    1
    11    12    11    1
    12    12    13    1
    13    13    14    1
    14    14    18    1
    15    16    17   ar
    16     9    11    1
    17     9    10    1
    18    10     6    1
    19    26    27   ar
    20    28    29   ar
    21    30    25   ar
    22    22     1    1
    23     5     4   ar
    24     5     1   ar
    25    18    15   ar
    26    18    19   ar
    27    20    21    2
    28     1     2   ar
    29     3     4   ar
    30    15    16   ar
    31    17    19   ar
    32    25    26   ar
    33    27    28   ar
    34    29    30   ar
    35    22    23    1
@<TRIPOS>MOLECULE
MolPort-005-088-836 CSSS00159778976 MCULE-8090982786 PubChem-45214854
 32 35 0 0 0
SMALL
GASTEIGER

@<TRIPOS>ATOM
      1 C          10.8738   40.9821    7.4622 C.ar    1  UNL1        0.1326
      2 C          10.2680   40.0137    6.6838 C.ar    1  UNL1        0.0565
      3 C           9.4847   39.3133    7.5943 C.ar    1  UNL1        0.1230
      4 N           9.6321   39.8447    8.8262 N.ar    1  UNL1       -0.1666
      5 N          10.4721   40.8603    8.7348 N.ar    1  UNL1       -0.2394
      6 C          10.9285   41.6750    9.8582 C.3     1  UNL1        0.1093
      7 C          10.2462   43.0522    9.8639 C.3     1  UNL1        0.0418
      8 C           9.1081   43.1438   10.8827 C.3     1  UNL1        0.0741
      9 C           9.3462   40.9476   11.7540 C.3     1  UNL1        0.0741
     10 C          10.7772   40.9182   11.1849 C.3     1  UNL1        0.0418
     11 N           8.4552   41.8460   11.0164 N.3     1  UNL1       -0.2725
     12 C           7.2711   42.0345   11.8380 C.3     1  UNL1        0.0742
     13 C           6.0561   41.4046   11.1681 C.3     1  UNL1        0.0437
     14 C           6.2100   41.3802    9.6520 C.3     1  UNL1        0.1289
     15 C           6.2131   43.4095    8.2234 C.ar    1  UNL1        0.0967
     16 C           5.3013   44.3928    7.8816 C.ar    1  UNL1        0.0427
     17 C           4.1378   44.0565    8.5588 C.ar    1  UNL1        0.1217
     18 N           5.5956   42.5544    9.0520 N.ar    1  UNL1       -0.2494
     19 N           4.3492   42.9311    9.2656 N.ar    1  UNL1       -0.1677
     20 C          13.2322   41.9042    7.1712 C.2     1  UNL1        0.2587
     21 O          13.7751   40.9079    7.7218 O.2     1  UNL1       -0.2717
     22 N          11.8097   41.9725    7.0187 N.am    1  UNL1       -0.2673
     23 H          11.4432   42.7688    6.5705 H       1  UNL1        0.1563
     24 C          14.0728   43.0416    6.6680 C.3     1  UNL1        0.2135
     25 C          15.4174   43.0469    7.3278 C.ar    1  UNL1        0.0134
     26 C          16.2717   44.1545    7.2186 C.ar    1  UNL1       -0.0015
     27 C          17.5256   44.1368    7.8361 C.ar    1  UNL1       -0.0002
     28 C          17.9302   43.0143    8.5641 C.ar    1  UNL1       -0.0000
     29 C          17.0813   41.9091    8.6746 C.ar    1  UNL1       -0.0002
     30 C          15.8271   41.9254    8.0571 C.ar    1  UNL1       -0.0015
     31 C          14.6812   44.2589    4.9191 C.3     1  UNL1        0.1751
     32 O          14.2165   42.9921    5.2767 O.3     1  UNL1       -0.3400
@<TRIPOS>BOND
     1    31    32    1
     2    24    32    1
     3    24    20    1
     4    24    25    1
     5    20    22   am
     6     2     3   ar
     7     6     5    1
     8     6     7    1
     9     7     8    1
    10     8    11    1
    11    12    11    1
    12    12    13    1
    13    13    14    1
    14    14    18    1
    15    16    17   ar
    16     9    11    1
    17     9    10    1
    18    10     6    1
    19    26    27   ar
    20    28    29   ar
    21    30    25   ar
    22    22     1    1
    23     5     4   ar
    24     5     1   ar
    25    18    15   ar
    26    18    19   ar
    27    20    21    2
    28     1     2   ar
    29     3     4   ar
    30    15    16   ar
    31    17    19   ar
    32    25    26   ar
    33    27    28   ar
    34    29    30   ar
    35    22    23    1
@<TRIPOS>MOLECULE
MolPort-005-088-836 CSSS00159778976 MCULE-8090982786 PubChem-45214854
 32 35 0 0 0
SMALL
GASTEIGER

@<TRIPOS>ATOM
      1 C          10.3053   40.4033   10.0474 C.ar    1  UNL1        0.1326
      2 C          10.1396   41.1954   11.1682 C.ar    1  UNL1        0.0565
      3 C           9.1107   42.0566   10.8037 C.ar    1  UNL1        0.1230
      4 N           8.7084   41.7795    9.5455 N.ar    1  UNL1       -0.1666
      5 N           9.4348   40.7712    9.0973 N.ar    1  UNL1       -0.2394
      6 C           9.3366   40.1971    7.7576 C.3     1  UNL1        0.1093
      7 C           9.0292   41.2767    6.7077 C.3     1  UNL1        0.0418
      8 C          10.2674   41.6989    5.9138 C.3     1  UNL1        0.0741
      9 C          11.7860   40.2066    6.9656 C.3     1  UNL1        0.0741
     10 C          10.5810   39.3632    7.4229 C.3     1  UNL1        0.0418
     11 N          11.4523   41.6179    6.7611 N.3     1  UNL1       -0.2725
     12 C          12.5572   42.2107    6.0259 C.3     1  UNL1        0.0742
     13 C          13.7409   42.4538    6.9541 C.3     1  UNL1        0.0437
     14 C          14.5323   43.6858    6.5313 C.3     1  UNL1        0.1289
     15 C          16.8950   44.4373    6.6389 C.ar    1  UNL1        0.0967
     16 C          18.0523   44.0103    7.2661 C.ar    1  UNL1        0.0427
     17 C          17.6784   42.8828    7.9834 C.ar    1  UNL1        0.1217
     18 N          15.9110   43.5948    6.9864 N.ar    1  UNL1       -0.2494
     19 N          16.3664   42.6537    7.7915 N.ar    1  UNL1       -0.1677
     20 C          12.4607   39.1816   10.6463 C.2     1  UNL1        0.2587
     21 O          12.7511   39.9843   11.5747 O.2     1  UNL1       -0.2717
     22 N          11.2631   39.3508    9.8791 N.am    1  UNL1       -0.2673
     23 H          11.0823   38.6866    9.1752 H       1  UNL1        0.1563
     24 C          13.3726   38.0328   10.3269 C.3     1  UNL1        0.2135
     25 C          14.8087   38.4315   10.4743 C.ar    1  UNL1        0.0134
     26 C          15.3385   39.5073    9.7459 C.ar    1  UNL1       -0.0015
     27 C          16.6834   39.8591    9.8926 C.ar    1  UNL1       -0.0002
     28 C          17.5029   39.1387   10.7662 C.ar    1  UNL1       -0.0000
     29 C          16.9778   38.0662   11.4933 C.ar    1  UNL1       -0.0002
     30 C          15.6330   37.7132   11.3471 C.ar    1  UNL1       -0.0015
     31 C          12.5121   35.9915   10.2685 C.3     1  UNL1        0.1751
     32 O          13.0935   36.9221   11.1315 O.3     1  UNL1       -0.3400
@<TRIPOS>BOND
     1    31    32    1
     2    24    32    1
     3    24    20    1
     4    24    25    1
     5    20    22   am
     6     2     3   ar
     7     6     5    1
     8     6     7    1
     9     7     8    1
    10     8    11    1
    11    12    11    1
    12    12    13    1
    13    13    14    1
    14    14    18    1
    15    16    17   ar
    16     9    11    1
    17     9    10    1
    18    10     6    1
    19    26    27   ar
    20    28    29   ar
    21    30    25   ar
    22    22     1    1
    23     5     4   ar
    24     5     1   ar
    25    18    15   ar
    26    18    19   ar
    27    20    21    2
    28     1     2   ar
    29     3     4   ar
    30    15    16   ar
    31    17    19   ar
    32    25    26   ar
    33    27    28   ar
    34    29    30   ar
    35    22    23    1
@<TRIPOS>MOLECULE
MolPort-005-088-836 CSSS00159778976 MCULE-8090982786 PubChem-45214854
 32 35 0 0 0
SMALL
GASTEIGER

@<TRIPOS>ATOM
      1 C           8.1425   41.9046   11.5981 C.ar    1  UNL1        0.1326
      2 C           8.3801   41.2284   12.7802 C.ar    1  UNL1        0.0565
      3 C           9.7485   40.9849   12.7416 C.ar    1  UNL1        0.1230
      4 N          10.2692   41.4885   11.6028 N.ar    1  UNL1       -0.1666
      5 N           9.2883   42.0497   10.9186 N.ar    1  UNL1       -0.2394
      6 C           9.4314   42.6729    9.6050 C.3     1  UNL1        0.1093
      7 C          10.6504   43.6079    9.5596 C.3     1  UNL1        0.0418
      8 C          11.8545   42.9757    8.8582 C.3     1  UNL1        0.0741
      9 C          10.7982   40.9226    8.3031 C.3     1  UNL1        0.0741
     10 C           9.4360   41.6165    8.4916 C.3     1  UNL1        0.0418
     11 N          11.8675   41.5360    9.0940 N.3     1  UNL1       -0.2725
     12 C          13.1241   41.0194    8.5777 C.3     1  UNL1        0.0742
     13 C          13.5318   39.7628    9.3369 C.3     1  UNL1        0.0437
     14 C          14.9842   39.8382    9.7932 C.3     1  UNL1        0.1289
     15 C          15.1701   41.6543    8.1121 C.ar    1  UNL1        0.0967
     16 C          16.1750   42.4803    7.6399 C.ar    1  UNL1        0.0427
     17 C          17.3069   42.1159    8.3551 C.ar    1  UNL1        0.1217
     18 N          15.7053   40.8616    9.0525 N.ar    1  UNL1       -0.2494
     19 N          16.9890   41.1248    9.2080 N.ar    1  UNL1       -0.1677
     20 C           5.6348   41.6681   11.2074 C.2     1  UNL1        0.2587
     21 O           5.5785   40.5278   11.7433 O.2     1  UNL1       -0.2717
     22 N           6.8757   42.3786   11.1249 N.am    1  UNL1       -0.2673
     23 H           6.8567   43.2698   10.7069 H       1  UNL1        0.1563
     24 C           4.3962   42.2998   10.6415 C.3     1  UNL1        0.2135
     25 C           4.7057   43.0542    9.3852 C.ar    1  UNL1        0.0134
     26 C           5.8817   42.8031    8.6624 C.ar    1  UNL1       -0.0015
     27 C           6.1555   43.5231    7.4959 C.ar    1  UNL1       -0.0002
     28 C           5.2567   44.4952    7.0477 C.ar    1  UNL1       -0.0000
     29 C           4.0841   44.7478    7.7658 C.ar    1  UNL1       -0.0002
     30 C           3.8094   44.0286    8.9328 C.ar    1  UNL1       -0.0015
     31 C           3.7085   40.8177    9.1446 C.3     1  UNL1        0.1751
     32 O           3.4020   41.3447   10.4003 O.3     1  UNL1       -0.3400
@<TRIPOS>BOND
     1    31    32    1
     2    24    32    1
     3    24    20    1
     4    24    25    1
     5    20    22   am
     6     2     3   ar
     7     6     5    1
     8     6     7    1
     9     7     8    1
    10     8    11    1
    11    12    11    1
    12    12    13    1
    13    13    14    1
    14    14    18    1
    15    16    17   ar
    16     9    11    1
    17     9    10    1
    18    10     6    1
    19    26    27   ar
    20    28    29   ar
    21    30    25   ar
    22    22     1    1
    23     5     4   ar
    24     5     1   ar
    25    18    15   ar
    26    18    19   ar
    27    20    21    2
    28     1     2   ar
    29     3     4   ar
    30    15    16   ar
    31    17    19   ar
    32    25    26   ar
    33    27    28   ar
    34    29    30   ar
    35    22    23    1
@<TRIPOS>MOLECULE
MolPort-005-088-836 CSSS00159778976 MCULE-8090982786 PubChem-45214854
 32 35 0 0 0
SMALL
GASTEIGER

@<TRIPOS>ATOM
      1 C          10.4796   39.6244    5.5148 C.ar    1  UNL1        0.1326
      2 C          10.9576   39.5795    4.2185 C.ar    1  UNL1        0.0565
      3 C           9.8399   39.2140    3.4765 C.ar    1  UNL1        0.1230
      4 N           8.7801   39.0548    4.2969 N.ar    1  UNL1       -0.1666
      5 N           9.1767   39.3118    5.5306 N.ar    1  UNL1       -0.2394
      6 C           8.3352   39.2098    6.7205 C.3     1  UNL1        0.1093
      7 C           8.8583   40.1067    7.8538 C.3     1  UNL1        0.0418
      8 C           8.0647   41.4077    7.9921 C.3     1  UNL1        0.0741
      9 C           6.5035   40.9589    6.2600 C.3     1  UNL1        0.0741
     10 C           6.8614   39.4653    6.3766 C.3     1  UNL1        0.0418
     11 N           7.5920   41.8431    6.6824 N.3     1  UNL1       -0.2725
     12 C           7.0203   43.1698    6.8424 C.3     1  UNL1        0.0742
     13 C           6.6526   43.4155    8.3005 C.3     1  UNL1        0.0437
     14 C           5.1845   43.7989    8.4444 C.3     1  UNL1        0.1289
     15 C           4.9622   41.6018    9.5765 C.ar    1  UNL1        0.0967
     16 C           3.9242   40.8359   10.0775 C.ar    1  UNL1        0.0427
     17 C           2.7779   41.5793    9.8348 C.ar    1  UNL1        0.1217
     18 N           4.4309   42.7273    9.0766 N.ar    1  UNL1       -0.2494
     19 N           3.1193   42.7275    9.2216 N.ar    1  UNL1       -0.1677
     20 C          12.0369   41.1051    6.8857 C.2     1  UNL1        0.2587
     21 O          12.1207   41.9855    5.9865 O.2     1  UNL1       -0.2717
     22 N          11.2338   39.9349    6.6930 N.am    1  UNL1       -0.2673
     23 H          11.1966   39.2879    7.4342 H       1  UNL1        0.1563
     24 C          12.7846   41.2693    8.1769 C.3     1  UNL1        0.2135
     25 C          11.8427   41.5274    9.3124 C.ar    1  UNL1        0.0134
     26 C          11.5742   40.5361   10.2684 C.ar    1  UNL1       -0.0015
     27 C          10.6864   40.7946   11.3167 C.ar    1  UNL1       -0.0002
     28 C          10.0644   42.0425   11.4139 C.ar    1  UNL1       -0.0000
     29 C          10.3298   43.0322   10.4629 C.ar    1  UNL1       -0.0002
     30 C          11.2172   42.7747    9.4138 C.ar    1  UNL1       -0.0015
     31 C          14.8346   40.6706    8.7681 C.3     1  UNL1        0.1751
     32 O          13.5787   40.1500    8.4515 O.3     1  UNL1       -0.3400
@<TRIPOS>BOND
     1    31    32    1
     2    24    32    1
     3    24    20    1
     4    24    25    1
     5    20    22   am
     6     2     3   ar
     7     6     5    1
     8     6     7    1
     9     7     8    1
    10     8    11    1
    11    12    11    1
    12    12    13    1
    13    13    14    1
    14    14    18    1
    15    16    17   ar
    16     9    11    1
    17     9    10    1
    18    10     6    1
    19    26    27   ar
    20    28    29   ar
    21    30    25   ar
    22    22     1    1
    23     5     4   ar
    24     5     1   ar
    25    18    15   ar
    26    18    19   ar
    27    20    21    2
    28     1     2   ar
    29     3     4   ar
    30    15    16   ar
    31    17    19   ar
    32    25    26   ar
    33    27    28   ar
    34    29    30   ar
    35    22    23    1
