@<TRIPOS>MOLECULE
Molport-046-870-217 MCULE-6959025151 PubChem-165781869
 23 23 0 0 0
SMALL
GASTEIGER

@<TRIPOS>ATOM
      1 C          13.2158   36.5439    9.6083 C.ar    1  UNL1        0.0057
      2 C          11.9415   36.5022   10.2060 C.ar    1  UNL1        0.0551
      3 C          11.0491   37.5590   10.0073 C.ar    1  UNL1        0.0124
      4 C          11.4178   38.6544    9.2233 C.ar    1  UNL1        0.0156
      5 C          12.6873   38.7070    8.6309 C.ar    1  UNL1        0.0530
      6 C          13.5788   37.6487    8.8311 C.ar    1  UNL1        0.0127
      7 CL         11.4353   35.1569   11.2169 Cl      1  UNL1       -0.0825
      8 C          14.0997   40.7925    8.1490 C.2     1  UNL1        0.4052
      9 N          13.1036   39.8154    7.8218 N.am    1  UNL1       -0.2499
     10 O          14.7195   40.7397    9.2464 O.2     1  UNL1       -0.2261
     11 H          12.6581   39.9158    6.9496 H       1  UNL1        0.1582
     12 O          14.3732   41.8104    7.2253 O.3     1  UNL1       -0.4417
     13 C          13.4105   42.7514    6.7437 C.3     1  UNL1        0.1378
     14 C          12.4486   42.0878    5.7735 C.3     1  UNL1        0.0437
     15 C          12.6163   43.2770    7.9207 C.3     1  UNL1        0.0437
     16 C          14.0976   43.9244    6.0661 C.3     1  UNL1        0.0437
     17 C          14.2097   35.4390    9.7848 C.3     1  UNL1        0.1001
     18 C          15.3310   33.9555    8.3803 C.3     1  UNL1        0.0900
     19 N          15.1004   35.3660    8.6359 N.3     1  UNL1       -0.2656
     20 C          16.3783   35.9302    9.0432 C.3     1  UNL1        0.1045
     21 C          17.5035   34.9684    8.7045 C.3     1  UNL1        0.1544
     22 O          18.3911   34.8784    9.7770 O.3     1  UNL1       -0.3805
     23 H          18.7668   35.7537    9.9602 H       1  UNL1        0.2105
@<TRIPOS>BOND
     1    18    19    1
     2    17    19    1
     3    17     1    1
     4     2     7    1
     5     2     3   ar
     6     4     5   ar
     7     5     9    1
     8     8    12    1
     9    13    12    1
    10    13    14    1
    11    13    15    1
    12    13    16    1
    13     6     1   ar
    14    20    19    1
    15    20    21    1
    16    21    22    1
    17     9     8   am
    18     1     2   ar
    19     3     4   ar
    20     5     6   ar
    21     8    10    2
    22     9    11    1
    23    22    23    1
@<TRIPOS>MOLECULE
Molport-046-870-217 MCULE-6959025151 PubChem-165781869
 23 23 0 0 0
SMALL
GASTEIGER

@<TRIPOS>ATOM
      1 C          13.8174   41.0508    8.8473 C.ar    1  UNL1        0.0057
      2 C          14.3688   40.2226    9.8437 C.ar    1  UNL1        0.0551
      3 C          13.5669   39.7832   10.9004 C.ar    1  UNL1        0.0124
      4 C          12.2254   40.1652   10.9726 C.ar    1  UNL1        0.0156
      5 C          11.6707   40.9956    9.9886 C.ar    1  UNL1        0.0530
      6 C          12.4748   41.4342    8.9324 C.ar    1  UNL1        0.0127
      7 CL         16.0550   39.7291    9.8102 Cl      1  UNL1       -0.0825
      8 C           9.8100   42.7443   10.2255 C.2     1  UNL1        0.4052
      9 N          10.2989   41.4115   10.0295 N.am    1  UNL1       -0.2499
     10 O          10.6086   43.7074   10.3866 O.2     1  UNL1       -0.2261
     11 H           9.6214   40.7071    9.9105 H       1  UNL1        0.1582
     12 O           8.4251   42.9588   10.2349 O.3     1  UNL1       -0.4417
     13 C           7.6503   43.3179    9.0882 C.3     1  UNL1        0.1378
     14 C           7.6097   44.8267    8.9176 C.3     1  UNL1        0.0437
     15 C           8.2961   42.7146    7.8590 C.3     1  UNL1        0.0437
     16 C           6.2364   42.7747    9.2032 C.3     1  UNL1        0.0437
     17 C          14.6288   41.5478    7.6922 C.3     1  UNL1        0.1001
     18 C          13.4384   42.6203    6.0000 C.3     1  UNL1        0.0900
     19 N          14.1431   42.8464    7.2491 N.3     1  UNL1       -0.2656
     20 C          15.3081   43.6574    6.9294 C.3     1  UNL1        0.1045
     21 C          15.0805   44.4050    5.6275 C.3     1  UNL1        0.1544
     22 O          15.1836   45.7794    5.8440 O.3     1  UNL1       -0.3805
     23 H          14.5146   46.0561    6.4895 H       1  UNL1        0.2105
@<TRIPOS>BOND
     1    18    19    1
     2    17    19    1
     3    17     1    1
     4     2     7    1
     5     2     3   ar
     6     4     5   ar
     7     5     9    1
     8     8    12    1
     9    13    12    1
    10    13    14    1
    11    13    15    1
    12    13    16    1
    13     6     1   ar
    14    20    19    1
    15    20    21    1
    16    21    22    1
    17     9     8   am
    18     1     2   ar
    19     3     4   ar
    20     5     6   ar
    21     8    10    2
    22     9    11    1
    23    22    23    1
@<TRIPOS>MOLECULE
Molport-046-870-217 MCULE-6959025151 PubChem-165781869
 23 23 0 0 0
SMALL
GASTEIGER

@<TRIPOS>ATOM
      1 C          10.6016   41.1820    8.0139 C.ar    1  UNL1        0.0057
      2 C           9.9405   40.9638    6.7900 C.ar    1  UNL1        0.0551
      3 C          10.6528   41.0611    5.5918 C.ar    1  UNL1        0.0124
      4 C          12.0132   41.3769    5.6047 C.ar    1  UNL1        0.0156
      5 C          12.6771   41.6029    6.8186 C.ar    1  UNL1        0.0530
      6 C          11.9626   41.5052    8.0163 C.ar    1  UNL1        0.0127
      7 CL          8.2266   40.5829    6.7173 Cl      1  UNL1       -0.0825
      8 C          14.6610   43.2190    6.6482 C.2     1  UNL1        0.4052
      9 N          14.0719   41.9319    6.8728 N.am    1  UNL1       -0.2499
     10 O          13.9428   44.2174    6.3681 O.2     1  UNL1       -0.2261
     11 H          14.6899   41.1961    7.0868 H       1  UNL1        0.1582
     12 O          16.0531   43.3484    6.7456 O.3     1  UNL1       -0.4417
     13 C          16.8418   42.8522    7.8300 C.3     1  UNL1        0.1378
     14 C          16.1361   41.7009    8.5254 C.3     1  UNL1        0.0437
     15 C          18.1575   42.3444    7.2794 C.3     1  UNL1        0.0437
     16 C          17.1346   43.9565    8.8311 C.3     1  UNL1        0.0437
     17 C           9.8892   41.0877    9.3267 C.3     1  UNL1        0.1001
     18 C           9.8061   42.3322   11.2952 C.3     1  UNL1        0.0900
     19 N           9.6204   42.4159    9.8577 N.3     1  UNL1       -0.2656
     20 C           8.2094   42.6930    9.6352 C.3     1  UNL1        0.1045
     21 C           7.3593   41.6069   10.2705 C.3     1  UNL1        0.1544
     22 O           6.1691   41.4571    9.5583 O.3     1  UNL1       -0.3805
     23 H           5.6770   42.2929    9.5713 H       1  UNL1        0.2105
@<TRIPOS>BOND
     1    18    19    1
     2    17    19    1
     3    17     1    1
     4     2     7    1
     5     2     3   ar
     6     4     5   ar
     7     5     9    1
     8     8    12    1
     9    13    12    1
    10    13    14    1
    11    13    15    1
    12    13    16    1
    13     6     1   ar
    14    20    19    1
    15    20    21    1
    16    21    22    1
    17     9     8   am
    18     1     2   ar
    19     3     4   ar
    20     5     6   ar
    21     8    10    2
    22     9    11    1
    23    22    23    1
@<TRIPOS>MOLECULE
Molport-046-870-217 MCULE-6959025151 PubChem-165781869
 23 23 0 0 0
SMALL
GASTEIGER

@<TRIPOS>ATOM
      1 C          14.2279   41.1862    8.3458 C.ar    1  UNL1        0.0057
      2 C          15.1309   42.0401    7.6841 C.ar    1  UNL1        0.0551
      3 C          14.6859   42.8249    6.6169 C.ar    1  UNL1        0.0124
      4 C          13.3531   42.7618    6.2040 C.ar    1  UNL1        0.0156
      5 C          12.4495   41.9087    6.8528 C.ar    1  UNL1        0.0530
      6 C          12.8968   41.1242    7.9202 C.ar    1  UNL1        0.0127
      7 CL         16.8218   42.1426    8.1513 Cl      1  UNL1       -0.0825
      8 C          10.4318   40.6888    5.8443 C.2     1  UNL1        0.4052
      9 N          11.0745   41.8140    6.4565 N.am    1  UNL1       -0.2499
     10 O          11.0768   39.6337    5.5955 O.2     1  UNL1       -0.2261
     11 H          10.5129   42.6054    6.6224 H       1  UNL1        0.1582
     12 O           9.0701   40.7824    5.5262 O.3     1  UNL1       -0.4417
     13 C           8.0053   40.6926    6.4761 C.3     1  UNL1        0.1378
     14 C           7.1742   41.9639    6.4741 C.3     1  UNL1        0.0437
     15 C           7.1092   39.5346    6.0912 C.3     1  UNL1        0.0437
     16 C           8.5494   40.4356    7.8708 C.3     1  UNL1        0.0437
     17 C          14.6491   40.3264    9.4960 C.3     1  UNL1        0.1001
     18 C          12.9155   39.9017   10.9945 C.3     1  UNL1        0.0900
     19 N          13.6019   39.3721    9.8298 N.3     1  UNL1       -0.2656
     20 C          14.2560   38.1436   10.2543 C.3     1  UNL1        0.1045
     21 C          14.9701   38.3641   11.5761 C.3     1  UNL1        0.1544
     22 O          15.4679   37.1523   12.0556 O.3     1  UNL1       -0.3805
     23 H          14.7343   36.5324   12.1912 H       1  UNL1        0.2105
@<TRIPOS>BOND
     1    18    19    1
     2    17    19    1
     3    17     1    1
     4     2     7    1
     5     2     3   ar
     6     4     5   ar
     7     5     9    1
     8     8    12    1
     9    13    12    1
    10    13    14    1
    11    13    15    1
    12    13    16    1
    13     6     1   ar
    14    20    19    1
    15    20    21    1
    16    21    22    1
    17     9     8   am
    18     1     2   ar
    19     3     4   ar
    20     5     6   ar
    21     8    10    2
    22     9    11    1
    23    22    23    1
@<TRIPOS>MOLECULE
Molport-046-870-217 MCULE-6959025151 PubChem-165781869
 23 23 0 0 0
SMALL
GASTEIGER

@<TRIPOS>ATOM
      1 C          10.5680   41.8044    8.1055 C.ar    1  UNL1        0.0057
      2 C           9.8526   41.4674    6.9405 C.ar    1  UNL1        0.0551
      3 C          10.5358   41.3002    5.7330 C.ar    1  UNL1        0.0124
      4 C          11.9210   41.4697    5.6782 C.ar    1  UNL1        0.0156
      5 C          12.6396   41.8124    6.8320 C.ar    1  UNL1        0.0530
      6 C          11.9542   41.9795    8.0391 C.ar    1  UNL1        0.0127
      7 CL          8.1075   41.2618    6.9512 Cl      1  UNL1       -0.0825
      8 C          14.7654   43.2424    6.7183 C.2     1  UNL1        0.4052
      9 N          14.0616   41.9977    6.8153 N.am    1  UNL1       -0.2499
     10 O          14.1381   44.3336    6.6349 O.2     1  UNL1       -0.2261
     11 H          14.6124   41.1841    6.8770 H       1  UNL1        0.1582
     12 O          16.1667   43.2251    6.7176 O.3     1  UNL1       -0.4417
     13 C          16.9755   42.8399    7.8320 C.3     1  UNL1        0.1378
     14 C          16.3113   41.7226    8.6178 C.3     1  UNL1        0.0437
     15 C          18.3055   42.3353    7.3137 C.3     1  UNL1        0.0437
     16 C          17.2348   44.0268    8.7438 C.3     1  UNL1        0.0437
     17 C           9.8883   41.9926    9.4255 C.3     1  UNL1        0.1001
     18 C           9.6646   41.1189   11.5743 C.3     1  UNL1        0.0900
     19 N           9.9074   40.7542   10.1901 N.3     1  UNL1       -0.2656
     20 C          11.2631   40.2294   10.1290 C.3     1  UNL1        0.1045
     21 C          11.2302   38.7258    9.9193 C.3     1  UNL1        0.1544
     22 O          12.3894   38.1479   10.4375 O.3     1  UNL1       -0.3805
     23 H          13.1642   38.5143    9.9833 H       1  UNL1        0.2105
@<TRIPOS>BOND
     1    18    19    1
     2    17    19    1
     3    17     1    1
     4     2     7    1
     5     2     3   ar
     6     4     5   ar
     7     5     9    1
     8     8    12    1
     9    13    12    1
    10    13    14    1
    11    13    15    1
    12    13    16    1
    13     6     1   ar
    14    20    19    1
    15    20    21    1
    16    21    22    1
    17     9     8   am
    18     1     2   ar
    19     3     4   ar
    20     5     6   ar
    21     8    10    2
    22     9    11    1
    23    22    23    1
@<TRIPOS>MOLECULE
Molport-046-870-217 MCULE-6959025151 PubChem-165781869
 23 23 0 0 0
SMALL
GASTEIGER

@<TRIPOS>ATOM
      1 C          10.3850   41.5763    9.1537 C.ar    1  UNL1        0.0057
      2 C          11.1652   41.0900   10.2203 C.ar    1  UNL1        0.0551
      3 C          10.6005   40.9720   11.4931 C.ar    1  UNL1        0.0124
      4 C           9.2701   41.3373   11.7101 C.ar    1  UNL1        0.0156
      5 C           8.4888   41.8293   10.6551 C.ar    1  UNL1        0.0530
      6 C           9.0557   41.9468    9.3825 C.ar    1  UNL1        0.0127
      7 CL         12.8488   40.6350   10.0052 Cl      1  UNL1       -0.0825
      8 C           6.0073   41.8617   10.0092 C.2     1  UNL1        0.4052
      9 N           7.1205   42.2173   10.8388 N.am    1  UNL1       -0.2499
     10 O           6.1673   41.1339    8.9914 O.2     1  UNL1       -0.2261
     11 H           6.9253   42.7880   11.6168 H       1  UNL1        0.1582
     12 O           4.7343   42.3387   10.3501 O.3     1  UNL1       -0.4417
     13 C           3.6218   41.5103   10.6970 C.3     1  UNL1        0.1378
     14 C           4.0938   40.2174   11.3393 C.3     1  UNL1        0.0437
     15 C           2.7577   42.2524   11.6944 C.3     1  UNL1        0.0437
     16 C           2.7805   41.1989    9.4712 C.3     1  UNL1        0.0437
     17 C          10.9371   41.7203    7.7702 C.3     1  UNL1        0.1001
     18 C          11.2439   39.6119    6.8261 C.3     1  UNL1        0.0900
     19 N          10.3344   40.7425    6.8762 N.3     1  UNL1       -0.2656
     20 C          10.3209   41.3261    5.5434 C.3     1  UNL1        0.1045
     21 C          10.3889   40.2300    4.4946 C.3     1  UNL1        0.1544
     22 O           9.1010   39.8802    4.0882 O.3     1  UNL1       -0.3805
     23 H           8.5975   39.5574    4.8518 H       1  UNL1        0.2105
@<TRIPOS>BOND
     1    18    19    1
     2    17    19    1
     3    17     1    1
     4     2     7    1
     5     2     3   ar
     6     4     5   ar
     7     5     9    1
     8     8    12    1
     9    13    12    1
    10    13    14    1
    11    13    15    1
    12    13    16    1
    13     6     1   ar
    14    20    19    1
    15    20    21    1
    16    21    22    1
    17     9     8   am
    18     1     2   ar
    19     3     4   ar
    20     5     6   ar
    21     8    10    2
    22     9    11    1
    23    22    23    1
@<TRIPOS>MOLECULE
Molport-046-870-217 MCULE-6959025151 PubChem-165781869
 23 23 0 0 0
SMALL
GASTEIGER

@<TRIPOS>ATOM
      1 C          13.5599   40.8682    8.0451 C.ar    1  UNL1        0.0057
      2 C          14.1948   42.0178    7.5372 C.ar    1  UNL1        0.0551
      3 C          15.5358   42.2611    7.8458 C.ar    1  UNL1        0.0124
      4 C          16.2444   41.3721    8.6570 C.ar    1  UNL1        0.0156
      5 C          15.6175   40.2291    9.1727 C.ar    1  UNL1        0.0530
      6 C          14.2757   39.9876    8.8629 C.ar    1  UNL1        0.0127
      7 CL         13.3434   43.1777    6.5284 Cl      1  UNL1       -0.0825
      8 C          16.4916   37.8934    9.7701 C.2     1  UNL1        0.4052
      9 N          16.3105   39.2945   10.0111 N.am    1  UNL1       -0.2499
     10 O          16.0207   37.3507    8.7332 O.2     1  UNL1       -0.2261
     11 H          16.7033   39.6532   10.8395 H       1  UNL1        0.1582
     12 O          17.2030   37.1351   10.7098 O.3     1  UNL1       -0.4417
     13 C          18.5444   36.6729   10.5337 C.3     1  UNL1        0.1378
     14 C          19.4644   37.8221   10.1594 C.3     1  UNL1        0.0437
     15 C          19.0276   36.0792   11.8399 C.3     1  UNL1        0.0437
     16 C          18.6057   35.5953    9.4649 C.3     1  UNL1        0.0437
     17 C          12.1274   40.5565    7.7443 C.3     1  UNL1        0.1001
     18 C          10.8325   40.8849    9.6538 C.3     1  UNL1        0.0900
     19 N          11.2481   41.5068    8.4094 N.3     1  UNL1       -0.2656
     20 C          10.0533   41.6373    7.5892 C.3     1  UNL1        0.1045
     21 C          10.3472   41.1934    6.1671 C.3     1  UNL1        0.1544
     22 O          10.1227   42.2494    5.2834 O.3     1  UNL1       -0.3805
     23 H           9.1959   42.5293    5.3429 H       1  UNL1        0.2105
@<TRIPOS>BOND
     1    18    19    1
     2    17    19    1
     3    17     1    1
     4     2     7    1
     5     2     3   ar
     6     4     5   ar
     7     5     9    1
     8     8    12    1
     9    13    12    1
    10    13    14    1
    11    13    15    1
    12    13    16    1
    13     6     1   ar
    14    20    19    1
    15    20    21    1
    16    21    22    1
    17     9     8   am
    18     1     2   ar
    19     3     4   ar
    20     5     6   ar
    21     8    10    2
    22     9    11    1
    23    22    23    1
@<TRIPOS>MOLECULE
Molport-046-870-217 MCULE-6959025151 PubChem-165781869
 23 23 0 0 0
SMALL
GASTEIGER

@<TRIPOS>ATOM
      1 C          12.1524   40.3988    9.7309 C.ar    1  UNL1        0.0057
      2 C          12.4550   41.3074    8.6987 C.ar    1  UNL1        0.0551
      3 C          13.7727   41.4320    8.2506 C.ar    1  UNL1        0.0124
      4 C          14.7875   40.6631    8.8246 C.ar    1  UNL1        0.0156
      5 C          14.4958   39.7616    9.8578 C.ar    1  UNL1        0.0530
      6 C          13.1768   39.6385   10.3048 C.ar    1  UNL1        0.0127
      7 CL         11.2190   42.3120    7.9563 Cl      1  UNL1       -0.0825
      8 C          16.0784   37.7462    9.9587 C.2     1  UNL1        0.4052
      9 N          15.5105   38.9569   10.4740 N.am    1  UNL1       -0.2499
     10 O          15.6973   37.2742    8.8527 O.2     1  UNL1       -0.2261
     11 H          15.8530   39.2692   11.3425 H       1  UNL1        0.1582
     12 O          17.0672   37.0943   10.7080 O.3     1  UNL1       -0.4417
     13 C          18.4626   37.1052   10.3966 C.3     1  UNL1        0.1378
     14 C          18.7039   36.5825    8.9910 C.3     1  UNL1        0.0437
     15 C          18.9638   38.5320   10.4691 C.3     1  UNL1        0.0437
     16 C          19.2433   36.2707   11.3973 C.3     1  UNL1        0.0437
     17 C          10.7589   40.2222   10.2473 C.3     1  UNL1        0.1001
     18 C          10.3857   41.1704   12.3432 C.3     1  UNL1        0.0900
     19 N          10.3062   41.4325   10.9173 N.3     1  UNL1       -0.2656
     20 C           8.8955   41.5990   10.6021 C.3     1  UNL1        0.1045
     21 C           8.1062   41.8637   11.8721 C.3     1  UNL1        0.1544
     22 O           6.9694   41.0556   11.9026 O.3     1  UNL1       -0.3805
     23 H           6.4107   41.2543   11.1349 H       1  UNL1        0.2105
@<TRIPOS>BOND
     1    18    19    1
     2    17    19    1
     3    17     1    1
     4     2     7    1
     5     2     3   ar
     6     4     5   ar
     7     5     9    1
     8     8    12    1
     9    13    12    1
    10    13    14    1
    11    13    15    1
    12    13    16    1
    13     6     1   ar
    14    20    19    1
    15    20    21    1
    16    21    22    1
    17     9     8   am
    18     1     2   ar
    19     3     4   ar
    20     5     6   ar
    21     8    10    2
    22     9    11    1
    23    22    23    1
@<TRIPOS>MOLECULE
Molport-046-870-217 MCULE-6959025151 PubChem-165781869
 23 23 0 0 0
SMALL
GASTEIGER

@<TRIPOS>ATOM
      1 C          11.0463   41.1889    8.8604 C.ar    1  UNL1        0.0057
      2 C          11.0303   41.5300    7.4943 C.ar    1  UNL1        0.0551
      3 C           9.8160   41.8257    6.8691 C.ar    1  UNL1        0.0124
      4 C           8.6220   41.7802    7.5922 C.ar    1  UNL1        0.0156
      5 C           8.6286   41.4343    8.9508 C.ar    1  UNL1        0.0530
      6 C           9.8445   41.1386    9.5744 C.ar    1  UNL1        0.0127
      7 CL         12.5014   41.5829    6.5347 Cl      1  UNL1       -0.0825
      8 C           6.1092   41.0598    9.2490 C.2     1  UNL1        0.4052
      9 N           7.4236   41.3740    9.7260 N.am    1  UNL1       -0.2499
     10 O           5.9102   40.7977    8.0312 O.2     1  UNL1       -0.2261
     11 H           7.5083   41.5689   10.6873 H       1  UNL1        0.1582
     12 O           5.0463   41.0493   10.1623 O.3     1  UNL1       -0.4417
     13 C           3.8930   41.8902   10.0772 C.3     1  UNL1        0.1378
     14 C           2.7899   41.2112    9.2840 C.3     1  UNL1        0.0437
     15 C           3.3821   42.1547   11.4776 C.3     1  UNL1        0.0437
     16 C           4.2443   43.2212    9.4351 C.3     1  UNL1        0.0437
     17 C          12.3176   40.8661    9.5811 C.3     1  UNL1        0.1001
     18 C          13.2964   39.5190   11.2113 C.3     1  UNL1        0.0900
     19 N          12.2133   39.5757   10.2461 N.3     1  UNL1       -0.2656
     20 C          12.4893   38.5522    9.2494 C.3     1  UNL1        0.1045
     21 C          11.6635   37.3105    9.5358 C.3     1  UNL1        0.1544
     22 O          10.3194   37.5583    9.2556 O.3     1  UNL1       -0.3805
     23 H          10.0017   38.2858    9.8130 H       1  UNL1        0.2105
@<TRIPOS>BOND
     1    18    19    1
     2    17    19    1
     3    17     1    1
     4     2     7    1
     5     2     3   ar
     6     4     5   ar
     7     5     9    1
     8     8    12    1
     9    13    12    1
    10    13    14    1
    11    13    15    1
    12    13    16    1
    13     6     1   ar
    14    20    19    1
    15    20    21    1
    16    21    22    1
    17     9     8   am
    18     1     2   ar
    19     3     4   ar
    20     5     6   ar
    21     8    10    2
    22     9    11    1
    23    22    23    1
@<TRIPOS>MOLECULE
Molport-046-870-217 MCULE-6959025151 PubChem-165781869
 23 23 0 0 0
SMALL
GASTEIGER

@<TRIPOS>ATOM
      1 C          10.8081   40.6229    7.6387 C.ar    1  UNL1        0.0057
      2 C          11.5593   41.6577    8.2282 C.ar    1  UNL1        0.0551
      3 C          10.9665   42.4834    9.1871 C.ar    1  UNL1        0.0124
      4 C           9.6343   42.2880    9.5581 C.ar    1  UNL1        0.0156
      5 C           8.8774   41.2648    8.9705 C.ar    1  UNL1        0.0530
      6 C           9.4723   40.4398    8.0112 C.ar    1  UNL1        0.0127
      7 CL         13.2325   41.9581    7.7829 Cl      1  UNL1       -0.0825
      8 C           6.3580   41.2455    8.4920 C.2     1  UNL1        0.4052
      9 N           7.5065   41.0346    9.3230 N.am    1  UNL1       -0.2499
     10 O           6.4846   41.6781    7.3139 O.2     1  UNL1       -0.2261
     11 H           7.3363   40.6959   10.2316 H       1  UNL1        0.1582
     12 O           5.0885   40.9620    9.0136 O.3     1  UNL1       -0.4417
     13 C           4.3036   41.8754    9.7842 C.3     1  UNL1        0.1378
     14 C           4.4398   43.2889    9.2451 C.3     1  UNL1        0.0437
     15 C           2.8495   41.4649    9.6885 C.3     1  UNL1        0.0437
     16 C           4.7173   41.8397   11.2454 C.3     1  UNL1        0.0437
     17 C          11.3929   39.7072    6.6095 C.3     1  UNL1        0.1001
     18 C          10.4048   41.4126    5.3662 C.3     1  UNL1        0.0900
     19 N          10.9022   40.0511    5.2830 N.3     1  UNL1       -0.2656
     20 C           9.7511   39.2025    5.0146 C.3     1  UNL1        0.1045
     21 C           9.8406   38.6333    3.6096 C.3     1  UNL1        0.1544
     22 O           8.7734   39.0969    2.8399 O.3     1  UNL1       -0.3805
     23 H           7.9374   38.8153    3.2433 H       1  UNL1        0.2105
@<TRIPOS>BOND
     1    18    19    1
     2    17    19    1
     3    17     1    1
     4     2     7    1
     5     2     3   ar
     6     4     5   ar
     7     5     9    1
     8     8    12    1
     9    13    12    1
    10    13    14    1
    11    13    15    1
    12    13    16    1
    13     6     1   ar
    14    20    19    1
    15    20    21    1
    16    21    22    1
    17     9     8   am
    18     1     2   ar
    19     3     4   ar
    20     5     6   ar
    21     8    10    2
    22     9    11    1
    23    22    23    1
