@<TRIPOS>MOLECULE
MolPort-007-723-372 ChemDiv-E157-4884 MCULE-8593298101 PubChem-22517958
 25 27 0 0 0
SMALL
GASTEIGER

@<TRIPOS>ATOM
      1 C          11.9352   40.1373    8.8115 C.2     1  UNL1        0.2678
      2 N          12.9195   40.2823    7.7819 N.am    1  UNL1       -0.2598
      3 O          11.3740   41.1425    9.3246 O.2     1  UNL1       -0.2708
      4 H          13.3284   39.4548    7.4395 H       1  UNL1        0.1569
      5 C          15.5642   44.2305    6.8772 C.ar    1  UNL1        0.1643
      6 C          13.7965   43.5118    6.0003 C.ar    1  UNL1        0.2195
      7 C          13.3684   41.5123    7.2008 C.ar    1  UNL1        0.1880
      8 N          15.2050   45.0992    5.8933 N.ar    1  UNL1       -0.1310
      9 N          14.0768   44.6439    5.3329 N.ar    1  UNL1       -0.1202
     10 N          14.4979   42.1389    7.6372 N.ar    1  UNL1       -0.1400
     11 N          14.6727   43.2415    6.9278 N.ar    1  UNL1       -0.1881
     12 S          12.5881   42.3572    5.9043 S.2     1  UNL1       -0.0111
     13 C          16.7768   44.3465    7.7409 C.3     1  UNL1        0.0677
     14 C          18.1272   42.2776    7.6258 C.3     1  UNL1        0.0005
     15 C          17.9785   43.6846    7.0870 C.3     1  UNL1        0.0076
     16 C          17.7908   43.6210    5.5830 C.3     1  UNL1        0.0005
     17 C          11.5833   38.7674    9.2849 C.3     1  UNL1        0.2415
     18 C          10.4218   38.2097    8.4852 C.3     1  UNL1        0.0574
     19 O          12.7082   37.9043    9.1701 O.3     1  UNL1       -0.4699
     20 C          13.8611   38.0596    9.9448 C.ar    1  UNL1        0.1391
     21 C          15.1388   37.7909    9.4258 C.ar    1  UNL1        0.0369
     22 C          16.2730   37.9547   10.2264 C.ar    1  UNL1        0.0031
     23 C          16.1380   38.3871   11.5485 C.ar    1  UNL1        0.0002
     24 C          14.8692   38.6557   12.0700 C.ar    1  UNL1        0.0031
     25 C          13.7346   38.4919   11.2693 C.ar    1  UNL1        0.0369
@<TRIPOS>BOND
     1    14    15    1
     2    15    16    1
     3    15    13    1
     4    13     5    1
     5     6    12   ar
     6     7    12   ar
     7     7     2    1
     8    17     1    1
     9    17    18    1
    10    17    19    1
    11    20    19    1
    12    21    22   ar
    13    23    24   ar
    14    25    20   ar
    15     8     9   ar
    16     2     1   am
    17    11    10   ar
    18    11     5   ar
    19    11     6   ar
    20     5     8   ar
    21     6     9   ar
    22     7    10   ar
    23     1     3    2
    24    20    21   ar
    25    22    23   ar
    26    24    25   ar
    27     2     4    1
@<TRIPOS>MOLECULE
MolPort-007-723-372 ChemDiv-E157-4884 MCULE-8593298101 PubChem-22517958
 25 27 0 0 0
SMALL
GASTEIGER

@<TRIPOS>ATOM
      1 C          11.7628   41.1825    9.4918 C.2     1  UNL1        0.2678
      2 N          12.6549   40.9179    8.4037 N.am    1  UNL1       -0.2598
      3 O          11.4341   42.3610    9.7949 O.2     1  UNL1       -0.2708
      4 H          12.8810   39.9747    8.2348 H       1  UNL1        0.1569
      5 C          15.7004   44.2390    6.6443 C.ar    1  UNL1        0.1643
      6 C          13.9378   43.4143    5.8551 C.ar    1  UNL1        0.2195
      7 C          13.2511   41.8897    7.5363 C.ar    1  UNL1        0.1880
      8 N          15.4880   44.8021    5.4239 N.ar    1  UNL1       -0.1310
      9 N          14.3634   44.2787    4.9185 N.ar    1  UNL1       -0.1202
     10 N          14.4008   42.5398    7.8743 N.ar    1  UNL1       -0.1400
     11 N          14.7217   43.3707    6.8966 N.ar    1  UNL1       -0.1881
     12 S          12.6391   42.3661    5.9865 S.2     1  UNL1       -0.0111
     13 C          16.8580   44.5225    7.5442 C.3     1  UNL1        0.0677
     14 C          17.9274   42.3242    7.9198 C.3     1  UNL1        0.0005
     15 C          18.0497   43.6469    7.1935 C.3     1  UNL1        0.0076
     16 C          18.0913   43.3885    5.6992 C.3     1  UNL1        0.0005
     17 C          11.2274   40.0355   10.2806 C.3     1  UNL1        0.2415
     18 C           9.9006   40.4006   10.9178 C.3     1  UNL1        0.0574
     19 O          11.0646   38.8971    9.4432 O.3     1  UNL1       -0.4699
     20 C          11.7965   37.7195    9.6195 C.ar    1  UNL1        0.1391
     21 C          11.2966   36.6487   10.3794 C.ar    1  UNL1        0.0369
     22 C          12.0533   35.4840   10.5383 C.ar    1  UNL1        0.0031
     23 C          13.3122   35.3821    9.9401 C.ar    1  UNL1        0.0002
     24 C          13.8144   36.4446    9.1831 C.ar    1  UNL1        0.0031
     25 C          13.0577   37.6096    9.0241 C.ar    1  UNL1        0.0369
@<TRIPOS>BOND
     1    14    15    1
     2    15    16    1
     3    15    13    1
     4    13     5    1
     5     6    12   ar
     6     7    12   ar
     7     7     2    1
     8    17     1    1
     9    17    18    1
    10    17    19    1
    11    20    19    1
    12    21    22   ar
    13    23    24   ar
    14    25    20   ar
    15     8     9   ar
    16     2     1   am
    17    11    10   ar
    18    11     5   ar
    19    11     6   ar
    20     5     8   ar
    21     6     9   ar
    22     7    10   ar
    23     1     3    2
    24    20    21   ar
    25    22    23   ar
    26    24    25   ar
    27     2     4    1
@<TRIPOS>MOLECULE
MolPort-007-723-372 ChemDiv-E157-4884 MCULE-8593298101 PubChem-22517958
 25 27 0 0 0
SMALL
GASTEIGER

@<TRIPOS>ATOM
      1 C           9.1808   41.7673    9.1442 C.2     1  UNL1        0.2678
      2 N          10.2688   41.8091   10.0739 N.am    1  UNL1       -0.2598
      3 O           9.3374   41.3223    7.9753 O.2     1  UNL1       -0.2708
      4 H          10.0778   42.1851   10.9635 H       1  UNL1        0.1569
      5 C          14.7433   41.4742    8.2664 C.ar    1  UNL1        0.1643
      6 C          13.7482   40.3436    9.7298 C.ar    1  UNL1        0.2195
      7 C          11.6078   41.3580    9.8378 C.ar    1  UNL1        0.1880
      8 N          15.6077   40.5251    8.7175 N.ar    1  UNL1       -0.1310
      9 N          14.9751   39.8013    9.6504 N.ar    1  UNL1       -0.1202
     10 N          12.4148   41.9633    8.9206 N.ar    1  UNL1       -0.1400
     11 N          13.5853   41.3475    8.9132 N.ar    1  UNL1       -0.1881
     12 S          12.3830   40.0372   10.6490 S.2     1  UNL1       -0.0111
     13 C          15.0492   42.5112    7.2363 C.3     1  UNL1        0.0677
     14 C          16.8015   43.8685    6.1388 C.3     1  UNL1        0.0005
     15 C          16.5305   42.8510    7.2265 C.3     1  UNL1        0.0076
     16 C          16.9457   43.4342    8.5639 C.3     1  UNL1        0.0005
     17 C           7.8449   42.2722    9.5743 C.3     1  UNL1        0.2415
     18 C           7.4713   43.5192    8.7965 C.3     1  UNL1        0.0574
     19 O           6.8556   41.2681    9.3826 O.3     1  UNL1       -0.4699
     20 C           5.5403   41.4083    9.8344 C.ar    1  UNL1        0.1391
     21 C           5.2472   41.6276   11.1908 C.ar    1  UNL1        0.0369
     22 C           3.9210   41.7625   11.6120 C.ar    1  UNL1        0.0031
     23 C           2.8811   41.6789   10.6820 C.ar    1  UNL1        0.0002
     24 C           3.1672   41.4606    9.3313 C.ar    1  UNL1        0.0031
     25 C           4.4936   41.3256    8.9100 C.ar    1  UNL1        0.0369
@<TRIPOS>BOND
     1    14    15    1
     2    15    16    1
     3    15    13    1
     4    13     5    1
     5     6    12   ar
     6     7    12   ar
     7     7     2    1
     8    17     1    1
     9    17    18    1
    10    17    19    1
    11    20    19    1
    12    21    22   ar
    13    23    24   ar
    14    25    20   ar
    15     8     9   ar
    16     2     1   am
    17    11    10   ar
    18    11     5   ar
    19    11     6   ar
    20     5     8   ar
    21     6     9   ar
    22     7    10   ar
    23     1     3    2
    24    20    21   ar
    25    22    23   ar
    26    24    25   ar
    27     2     4    1
@<TRIPOS>MOLECULE
MolPort-007-723-372 ChemDiv-E157-4884 MCULE-8593298101 PubChem-22517958
 25 27 0 0 0
SMALL
GASTEIGER

@<TRIPOS>ATOM
      1 C          11.2286   40.9827    6.0116 C.2     1  UNL1        0.2678
      2 N          12.0471   42.1495    5.8750 N.am    1  UNL1       -0.2598
      3 O          11.6243   39.9804    6.6654 O.2     1  UNL1       -0.2708
      4 H          11.6809   42.8875    5.3361 H       1  UNL1        0.1569
      5 C          16.0016   41.5543    8.5967 C.ar    1  UNL1        0.1643
      6 C          15.5228   42.9860    7.1370 C.ar    1  UNL1        0.2195
      7 C          13.3462   42.3492    6.4448 C.ar    1  UNL1        0.1880
      8 N          17.0644   42.3953    8.4748 N.ar    1  UNL1       -0.1310
      9 N          16.7613   43.3106    7.5450 N.ar    1  UNL1       -0.1202
     10 N          13.8370   41.5236    7.4124 N.ar    1  UNL1       -0.1400
     11 N          15.0471   41.9375    7.7497 N.ar    1  UNL1       -0.1881
     12 S          14.4538   43.6090    6.0092 S.2     1  UNL1       -0.0111
     13 C          15.9258   40.3738    9.5082 C.3     1  UNL1        0.0677
     14 C          14.7736   38.2104    9.1776 C.3     1  UNL1        0.0005
     15 C          14.5708   39.6928    9.4084 C.3     1  UNL1        0.0076
     16 C          13.7863   39.8908   10.6916 C.3     1  UNL1        0.0005
     17 C           9.8897   40.9602    5.3548 C.3     1  UNL1        0.2415
     18 C           9.7950   39.8037    4.3785 C.3     1  UNL1        0.0574
     19 O           8.8641   40.8512    6.3345 O.3     1  UNL1       -0.4699
     20 C           8.3056   41.9640    6.9697 C.ar    1  UNL1        0.1391
     21 C           8.7111   42.3582    8.2558 C.ar    1  UNL1        0.0369
     22 C           8.1326   43.4755    8.8652 C.ar    1  UNL1        0.0031
     23 C           7.1466   44.2045    8.1946 C.ar    1  UNL1        0.0002
     24 C           6.7394   43.8164    6.9150 C.ar    1  UNL1        0.0031
     25 C           7.3179   42.6990    6.3053 C.ar    1  UNL1        0.0369
@<TRIPOS>BOND
     1    14    15    1
     2    15    16    1
     3    15    13    1
     4    13     5    1
     5     6    12   ar
     6     7    12   ar
     7     7     2    1
     8    17     1    1
     9    17    18    1
    10    17    19    1
    11    20    19    1
    12    21    22   ar
    13    23    24   ar
    14    25    20   ar
    15     8     9   ar
    16     2     1   am
    17    11    10   ar
    18    11     5   ar
    19    11     6   ar
    20     5     8   ar
    21     6     9   ar
    22     7    10   ar
    23     1     3    2
    24    20    21   ar
    25    22    23   ar
    26    24    25   ar
    27     2     4    1
@<TRIPOS>MOLECULE
MolPort-007-723-372 ChemDiv-E157-4884 MCULE-8593298101 PubChem-22517958
 25 27 0 0 0
SMALL
GASTEIGER

@<TRIPOS>ATOM
      1 C           9.4390   41.4452    9.3276 C.2     1  UNL1        0.2678
      2 N           8.4279   41.5206    8.3167 N.am    1  UNL1       -0.2598
      3 O           9.3735   42.1500   10.3705 O.2     1  UNL1       -0.2708
      4 H           8.5527   40.9540    7.5214 H       1  UNL1        0.1569
      5 C           3.8915   43.0022    9.1083 C.ar    1  UNL1        0.1643
      6 C           5.5356   43.9702    8.2310 C.ar    1  UNL1        0.2195
      7 C           7.2525   42.3390    8.3481 C.ar    1  UNL1        0.1880
      8 N           3.4957   44.2549    8.7535 N.ar    1  UNL1       -0.1310
      9 N           4.5424   44.8744    8.1924 N.ar    1  UNL1       -0.1202
     10 N           6.0801   41.8862    8.8765 N.ar    1  UNL1       -0.1400
     11 N           5.1720   42.8426    8.7763 N.ar    1  UNL1       -0.1881
     12 S           7.1404   43.9633    7.7544 S.2     1  UNL1       -0.0111
     13 C           3.0406   41.9803    9.7879 C.3     1  UNL1        0.0677
     14 C           2.2276   42.1500   12.1176 C.3     1  UNL1        0.0005
     15 C           3.4272   41.8329   11.2503 C.3     1  UNL1        0.0076
     16 C           3.8814   40.4136   11.5342 C.3     1  UNL1        0.0005
     17 C          10.5916   40.5201    9.1271 C.3     1  UNL1        0.2415
     18 C          10.5972   39.9756    7.7118 C.3     1  UNL1        0.0574
     19 O          11.8153   41.1962    9.3899 O.3     1  UNL1       -0.4699
     20 C          12.9552   40.5383    9.8602 C.ar    1  UNL1        0.1391
     21 C          14.1766   40.5957    9.1682 C.ar    1  UNL1        0.0369
     22 C          15.2991   39.9257    9.6637 C.ar    1  UNL1        0.0031
     23 C          15.2083   39.1953   10.8518 C.ar    1  UNL1        0.0002
     24 C          13.9955   39.1347   11.5441 C.ar    1  UNL1        0.0031
     25 C          12.8728   39.8047   11.0486 C.ar    1  UNL1        0.0369
@<TRIPOS>BOND
     1    14    15    1
     2    15    16    1
     3    15    13    1
     4    13     5    1
     5     6    12   ar
     6     7    12   ar
     7     7     2    1
     8    17     1    1
     9    17    18    1
    10    17    19    1
    11    20    19    1
    12    21    22   ar
    13    23    24   ar
    14    25    20   ar
    15     8     9   ar
    16     2     1   am
    17    11    10   ar
    18    11     5   ar
    19    11     6   ar
    20     5     8   ar
    21     6     9   ar
    22     7    10   ar
    23     1     3    2
    24    20    21   ar
    25    22    23   ar
    26    24    25   ar
    27     2     4    1
@<TRIPOS>MOLECULE
MolPort-007-723-372 ChemDiv-E157-4884 MCULE-8593298101 PubChem-22517958
 25 27 0 0 0
SMALL
GASTEIGER

@<TRIPOS>ATOM
      1 C           9.4686   41.5923    6.6937 C.2     1  UNL1        0.2678
      2 N           8.9137   41.9345    7.9684 N.am    1  UNL1       -0.2598
      3 O           8.8133   41.7595    5.6301 O.2     1  UNL1       -0.2708
      4 H           9.4758   41.7611    8.7578 H       1  UNL1        0.1569
      5 C           4.2367   42.3694    9.1248 C.ar    1  UNL1        0.1643
      6 C           5.6541   43.7926    8.5117 C.ar    1  UNL1        0.2195
      7 C           7.6216   42.5044    8.2088 C.ar    1  UNL1        0.1880
      8 N           3.6222   43.5832    9.0972 N.ar    1  UNL1       -0.1310
      9 N           4.5237   44.4930    8.7051 N.ar    1  UNL1       -0.1202
     10 N           6.5669   41.7400    8.6116 N.ar    1  UNL1       -0.1400
     11 N           5.5089   42.5201    8.7582 N.ar    1  UNL1       -0.1881
     12 S           7.2134   44.1804    8.0420 S.2     1  UNL1       -0.0111
     13 C           3.6005   41.0806    9.5298 C.3     1  UNL1        0.0677
     14 C           5.0981   41.0725   11.4980 C.3     1  UNL1        0.0005
     15 C           3.6685   40.8874   11.0357 C.3     1  UNL1        0.0076
     16 C           2.7865   41.9031   11.7370 C.3     1  UNL1        0.0005
     17 C          10.8441   41.0182    6.6366 C.3     1  UNL1        0.2415
     18 C          10.8646   39.7699    5.7759 C.3     1  UNL1        0.0574
     19 O          11.7558   41.9787    6.1173 O.3     1  UNL1       -0.4699
     20 C          13.0540   42.1318    6.6120 C.ar    1  UNL1        0.1391
     21 C          13.5381   41.3404    7.6671 C.ar    1  UNL1        0.0369
     22 C          14.8413   41.5183    8.1406 C.ar    1  UNL1        0.0031
     23 C          15.6677   42.4867    7.5640 C.ar    1  UNL1        0.0002
     24 C          15.1910   43.2771    6.5142 C.ar    1  UNL1        0.0031
     25 C          13.8875   43.0992    6.0405 C.ar    1  UNL1        0.0369
@<TRIPOS>BOND
     1    14    15    1
     2    15    16    1
     3    15    13    1
     4    13     5    1
     5     6    12   ar
     6     7    12   ar
     7     7     2    1
     8    17     1    1
     9    17    18    1
    10    17    19    1
    11    20    19    1
    12    21    22   ar
    13    23    24   ar
    14    25    20   ar
    15     8     9   ar
    16     2     1   am
    17    11    10   ar
    18    11     5   ar
    19    11     6   ar
    20     5     8   ar
    21     6     9   ar
    22     7    10   ar
    23     1     3    2
    24    20    21   ar
    25    22    23   ar
    26    24    25   ar
    27     2     4    1
@<TRIPOS>MOLECULE
MolPort-007-723-372 ChemDiv-E157-4884 MCULE-8593298101 PubChem-22517958
 25 27 0 0 0
SMALL
GASTEIGER

@<TRIPOS>ATOM
      1 C          11.5034   41.1782    8.9758 C.2     1  UNL1        0.2678
      2 N          10.5373   41.6203    9.9356 N.am    1  UNL1       -0.2598
      3 O          11.3394   41.3818    7.7428 O.2     1  UNL1       -0.2708
      4 H          10.7226   41.4118   10.8797 H       1  UNL1        0.1569
      5 C           5.8839   42.5848    9.0322 C.ar    1  UNL1        0.1643
      6 C           7.5529   43.8456    9.2189 C.ar    1  UNL1        0.2195
      7 C           9.3279   42.3361    9.6580 C.ar    1  UNL1        0.1880
      8 N           5.4581   43.8661    8.8630 N.ar    1  UNL1       -0.1310
      9 N           6.5210   44.6727    8.9803 N.ar    1  UNL1       -0.1202
     10 N           8.1366   41.6923    9.4993 N.ar    1  UNL1       -0.1400
     11 N           7.1973   42.5913    9.2569 N.ar    1  UNL1       -0.1881
     12 S           9.1905   44.0560    9.4955 S.2     1  UNL1       -0.0111
     13 C           5.0179   41.3686    9.0029 C.3     1  UNL1        0.0677
     14 C           2.5764   41.3133    9.3941 C.3     1  UNL1        0.0005
     15 C           3.9291   41.4477   10.0603 C.3     1  UNL1        0.0076
     16 C           4.0956   40.3296   11.0719 C.3     1  UNL1        0.0005
     17 C          12.7168   40.4550    9.4546 C.3     1  UNL1        0.2415
     18 C          12.5788   40.0967   10.9217 C.3     1  UNL1        0.0574
     19 O          12.9207   39.2755    8.6859 O.3     1  UNL1       -0.4699
     20 C          12.8653   37.9939    9.2408 C.ar    1  UNL1        0.1391
     21 C          13.9870   37.1480    9.2537 C.ar    1  UNL1        0.0369
     22 C          13.8995   35.8707    9.8151 C.ar    1  UNL1        0.0031
     23 C          12.6926   35.4312   10.3660 C.ar    1  UNL1        0.0002
     24 C          11.5735   36.2687   10.3555 C.ar    1  UNL1        0.0031
     25 C          11.6608   37.5462    9.7941 C.ar    1  UNL1        0.0369
@<TRIPOS>BOND
     1    14    15    1
     2    15    16    1
     3    15    13    1
     4    13     5    1
     5     6    12   ar
     6     7    12   ar
     7     7     2    1
     8    17     1    1
     9    17    18    1
    10    17    19    1
    11    20    19    1
    12    21    22   ar
    13    23    24   ar
    14    25    20   ar
    15     8     9   ar
    16     2     1   am
    17    11    10   ar
    18    11     5   ar
    19    11     6   ar
    20     5     8   ar
    21     6     9   ar
    22     7    10   ar
    23     1     3    2
    24    20    21   ar
    25    22    23   ar
    26    24    25   ar
    27     2     4    1
@<TRIPOS>MOLECULE
MolPort-007-723-372 ChemDiv-E157-4884 MCULE-8593298101 PubChem-22517958
 25 27 0 0 0
SMALL
GASTEIGER

@<TRIPOS>ATOM
      1 C           6.2004   43.4400    8.5354 C.2     1  UNL1        0.2678
      2 N           6.0362   42.3093    7.6725 N.am    1  UNL1       -0.2598
      3 O           7.2235   43.5646    9.2609 O.2     1  UNL1       -0.2708
      4 H           5.2044   42.2693    7.1473 H       1  UNL1        0.1569
      5 C           9.8684   39.4155    8.2561 C.ar    1  UNL1        0.1643
      6 C           8.2460   39.3207    6.9260 C.ar    1  UNL1        0.2195
      7 C           6.9623   41.2306    7.4978 C.ar    1  UNL1        0.1880
      8 N          10.0252   38.3036    7.4875 N.ar    1  UNL1       -0.1310
      9 N           8.9922   38.2411    6.6371 N.ar    1  UNL1       -0.1202
     10 N           8.0831   41.1190    8.2661 N.ar    1  UNL1       -0.1400
     11 N           8.7479   40.0383    7.8926 N.ar    1  UNL1       -0.1881
     12 S           6.8090   39.9492    6.3410 S.2     1  UNL1       -0.0111
     13 C          10.7846   39.8531    9.3511 C.3     1  UNL1        0.0677
     14 C          11.3070   42.2681    9.4622 C.3     1  UNL1        0.0005
     15 C          11.7306   40.9409    8.8697 C.3     1  UNL1        0.0076
     16 C          13.1506   40.6347    9.3069 C.3     1  UNL1        0.0005
     17 C           5.1297   44.4776    8.5760 C.3     1  UNL1        0.2415
     18 C           4.6503   44.8032    7.1747 C.3     1  UNL1        0.0574
     19 O           4.0377   44.0255    9.3678 O.3     1  UNL1       -0.4699
     20 C           3.9654   42.7285    9.8838 C.ar    1  UNL1        0.1391
     21 C           3.1435   41.7491    9.3015 C.ar    1  UNL1        0.0369
     22 C           3.0919   40.4608    9.8417 C.ar    1  UNL1        0.0031
     23 C           3.8597   40.1436   10.9655 C.ar    1  UNL1        0.0002
     24 C           4.6790   41.1143   11.5490 C.ar    1  UNL1        0.0031
     25 C           4.7307   42.4029   11.0088 C.ar    1  UNL1        0.0369
@<TRIPOS>BOND
     1    14    15    1
     2    15    16    1
     3    15    13    1
     4    13     5    1
     5     6    12   ar
     6     7    12   ar
     7     7     2    1
     8    17     1    1
     9    17    18    1
    10    17    19    1
    11    20    19    1
    12    21    22   ar
    13    23    24   ar
    14    25    20   ar
    15     8     9   ar
    16     2     1   am
    17    11    10   ar
    18    11     5   ar
    19    11     6   ar
    20     5     8   ar
    21     6     9   ar
    22     7    10   ar
    23     1     3    2
    24    20    21   ar
    25    22    23   ar
    26    24    25   ar
    27     2     4    1
@<TRIPOS>MOLECULE
MolPort-007-723-372 ChemDiv-E157-4884 MCULE-8593298101 PubChem-22517958
 25 27 0 0 0
SMALL
GASTEIGER

@<TRIPOS>ATOM
      1 C           9.4944   41.6059    7.7190 C.2     1  UNL1        0.2678
      2 N           8.9759   42.9202    7.9508 N.am    1  UNL1       -0.2598
      3 O           8.7270   40.6136    7.5957 O.2     1  UNL1       -0.2708
      4 H           9.6343   43.6448    8.0540 H       1  UNL1        0.1569
      5 C           4.4167   43.2371    9.5363 C.ar    1  UNL1        0.1643
      6 C           5.3761   44.1073    7.8833 C.ar    1  UNL1        0.2195
      7 C           7.5940   43.2851    8.0474 C.ar    1  UNL1        0.1880
      8 N           3.5044   44.0079    8.8843 N.ar    1  UNL1       -0.1310
      9 N           4.1133   44.5634    7.8285 N.ar    1  UNL1       -0.1202
     10 N           6.7999   42.8182    9.0525 N.ar    1  UNL1       -0.1400
     11 N           5.5835   43.3136    8.8973 N.ar    1  UNL1       -0.1881
     12 S           6.7517   44.3366    6.9573 S.2     1  UNL1       -0.0111
     13 C           4.1636   42.4557   10.7835 C.3     1  UNL1        0.0677
     14 C           6.0448   41.1640   11.7372 C.3     1  UNL1        0.0005
     15 C           4.8961   41.1244   10.7520 C.3     1  UNL1        0.0076
     16 C           3.9556   39.9971   11.1339 C.3     1  UNL1        0.0005
     17 C          10.9716   41.4179    7.6345 C.3     1  UNL1        0.2415
     18 C          11.6924   42.5220    8.3835 C.3     1  UNL1        0.0574
     19 O          11.3369   40.1518    8.1702 O.3     1  UNL1       -0.4699
     20 C          12.4360   39.9787    9.0160 C.ar    1  UNL1        0.1391
     21 C          12.2789   39.5942   10.3582 C.ar    1  UNL1        0.0369
     22 C          13.3982   39.4304   11.1796 C.ar    1  UNL1        0.0031
     23 C          14.6793   39.6495   10.6660 C.ar    1  UNL1        0.0002
     24 C          14.8413   40.0323    9.3314 C.ar    1  UNL1        0.0031
     25 C          13.7219   40.1963    8.5097 C.ar    1  UNL1        0.0369
@<TRIPOS>BOND
     1    14    15    1
     2    15    16    1
     3    15    13    1
     4    13     5    1
     5     6    12   ar
     6     7    12   ar
     7     7     2    1
     8    17     1    1
     9    17    18    1
    10    17    19    1
    11    20    19    1
    12    21    22   ar
    13    23    24   ar
    14    25    20   ar
    15     8     9   ar
    16     2     1   am
    17    11    10   ar
    18    11     5   ar
    19    11     6   ar
    20     5     8   ar
    21     6     9   ar
    22     7    10   ar
    23     1     3    2
    24    20    21   ar
    25    22    23   ar
    26    24    25   ar
    27     2     4    1
@<TRIPOS>MOLECULE
MolPort-007-723-372 ChemDiv-E157-4884 MCULE-8593298101 PubChem-22517958
 25 27 0 0 0
SMALL
GASTEIGER

@<TRIPOS>ATOM
      1 C           9.8346   42.0857    8.3109 C.2     1  UNL1        0.2678
      2 N          10.8245   41.4865    7.4676 N.am    1  UNL1       -0.2598
      3 O          10.1614   42.8285    9.2753 O.2     1  UNL1       -0.2708
      4 H          10.4973   40.9044    6.7442 H       1  UNL1        0.1569
      5 C          15.4107   40.9357    8.9042 C.ar    1  UNL1        0.1643
      6 C          14.5505   42.1864    7.4531 C.ar    1  UNL1        0.2195
      7 C          12.2437   41.6504    7.5722 C.ar    1  UNL1        0.1880
      8 N          16.4120   41.6563    8.3299 N.ar    1  UNL1       -0.1310
      9 N          15.8659   42.4561    7.4045 N.ar    1  UNL1       -0.1202
     10 N          12.9831   40.9281    8.4612 N.ar    1  UNL1       -0.1400
     11 N          14.2528   41.2785    8.3409 N.ar    1  UNL1       -0.1881
     12 S          13.2046   42.7366    6.6232 S.2     1  UNL1       -0.0111
     13 C          15.5815   39.9045    9.9708 C.3     1  UNL1        0.0677
     14 C          14.5887   37.6480    9.7721 C.3     1  UNL1        0.0005
     15 C          14.3122   39.0878   10.1492 C.3     1  UNL1        0.0076
     16 C          13.8507   39.1411   11.5933 C.3     1  UNL1        0.0005
     17 C           8.3941   41.8099    8.0402 C.3     1  UNL1        0.2415
     18 C           8.2212   40.4326    7.4296 C.3     1  UNL1        0.0574
     19 O           7.6417   41.9031    9.2439 O.3     1  UNL1       -0.4699
     20 C           6.2645   42.1409    9.2568 C.ar    1  UNL1        0.1391
     21 C           5.3532   41.1670    9.6982 C.ar    1  UNL1        0.0369
     22 C           3.9811   41.4346    9.6979 C.ar    1  UNL1        0.0031
     23 C           3.5116   42.6750    9.2572 C.ar    1  UNL1        0.0002
     24 C           4.4140   43.6475    8.8167 C.ar    1  UNL1        0.0031
     25 C           5.7864   43.3799    8.8169 C.ar    1  UNL1        0.0369
@<TRIPOS>BOND
     1    14    15    1
     2    15    16    1
     3    15    13    1
     4    13     5    1
     5     6    12   ar
     6     7    12   ar
     7     7     2    1
     8    17     1    1
     9    17    18    1
    10    17    19    1
    11    20    19    1
    12    21    22   ar
    13    23    24   ar
    14    25    20   ar
    15     8     9   ar
    16     2     1   am
    17    11    10   ar
    18    11     5   ar
    19    11     6   ar
    20     5     8   ar
    21     6     9   ar
    22     7    10   ar
    23     1     3    2
    24    20    21   ar
    25    22    23   ar
    26    24    25   ar
    27     2     4    1
