@<TRIPOS>MOLECULE
MolPort-016-717-760 MCULE-1350615302 PubChem-46974622
 31 34 0 0 0
SMALL
GASTEIGER

@<TRIPOS>ATOM
      1 C          11.3869   41.2244    6.0237 C.2     1  UNL1        0.2297
      2 O          11.9282   40.2387    6.5899 O.2     1  UNL1       -0.2746
      3 N          12.0866   42.4630    5.8563 N.am    1  UNL1       -0.2641
      4 H          11.6083   43.1824    5.3842 H       1  UNL1        0.1567
      5 C          16.2164   41.8355    8.3284 C.ar    1  UNL1        0.1566
      6 C          15.3055   42.4403    7.4567 C.ar    1  UNL1        0.1230
      7 C          15.6382   43.6141    6.7965 C.ar    1  UNL1        0.0527
      8 C          16.8713   44.2375    6.9626 C.ar    1  UNL1        0.0083
      9 C          17.7961   43.6412    7.8327 C.ar    1  UNL1        0.0037
     10 C          17.4734   42.4501    8.5101 C.ar    1  UNL1        0.0385
     11 C          13.4137   42.7583    6.3079 C.ar    1  UNL1        0.1656
     12 S          14.3525   44.0910    5.8315 S.2     1  UNL1       -0.0513
     13 N          14.0648   41.9587    7.1863 N.ar    1  UNL1       -0.2209
     14 O          15.8703   40.6485    8.9862 O.3     1  UNL1       -0.4739
     15 C          14.4266   39.6732   10.6582 C.3     1  UNL1        0.0512
     16 C          14.5260   40.2737    9.2680 C.3     1  UNL1        0.2056
     17 C           9.9861   41.1026    5.5293 C.3     1  UNL1        0.1144
     18 C           9.0608   40.6082    6.6333 C.3     1  UNL1        0.1599
     19 C           7.7108   41.2566    6.5399 C.2     1  UNL1        0.2547
     20 C           8.5651   41.9018    8.5004 C.2     1  UNL1        0.3139
     21 O           6.9143   41.0905    5.5778 O.2     1  UNL1       -0.2723
     22 O           8.7057   42.4525    9.6240 O.2     1  UNL1       -0.2518
     23 N           7.4113   42.0512    7.6843 N.am    1  UNL1       -0.1912
     24 N           9.5625   41.0664    7.9265 N.am    1  UNL1       -0.2815
     25 H          10.4323   40.8384    8.3275 H       1  UNL1        0.1514
     26 C           6.2213   42.8197    7.9513 C.ar    1  UNL1        0.0622
     27 C           5.2595   42.3547    8.8620 C.ar    1  UNL1        0.0154
     28 C           4.1056   43.0995    9.1217 C.ar    1  UNL1        0.0013
     29 C           3.9012   44.3192    8.4726 C.ar    1  UNL1        0.0001
     30 C           4.8505   44.7933    7.5644 C.ar    1  UNL1        0.0013
     31 C           6.0038   44.0471    7.3060 C.ar    1  UNL1        0.0154
@<TRIPOS>BOND
     1    15    16    1
     2    16    14    1
     3     5    14    1
     4     6     7   ar
     5     6    13   ar
     6     7    12   ar
     7     8     9   ar
     8    10     5   ar
     9    11    12   ar
    10    11     3    1
    11    17     1    1
    12    18    17    1
    13    18    19    1
    14    18    24    1
    15    19    23   am
    16    20    24   am
    17    27    28   ar
    18    29    30   ar
    19    31    26   ar
    20     3     1   am
    21    23    20   am
    22    23    26    1
    23     5     6   ar
    24     7     8   ar
    25     9    10   ar
    26    11    13   ar
    27     1     2    2
    28    19    21    2
    29    20    22    2
    30    26    27   ar
    31    28    29   ar
    32    30    31   ar
    33     3     4    1
    34    24    25    1
@<TRIPOS>MOLECULE
MolPort-016-717-760 MCULE-1350615302 PubChem-46974622
 31 34 0 0 0
SMALL
GASTEIGER

@<TRIPOS>ATOM
      1 C          10.8785   42.5177    8.1744 C.2     1  UNL1        0.2297
      2 O          11.1658   43.3422    9.0814 O.2     1  UNL1       -0.2746
      3 N          11.8864   41.9823    7.3088 N.am    1  UNL1       -0.2641
      4 H          11.5914   41.3254    6.6375 H       1  UNL1        0.1567
      5 C          16.5582   41.6025    8.5701 C.ar    1  UNL1        0.1566
      6 C          15.4267   42.1060    7.9209 C.ar    1  UNL1        0.1230
      7 C          15.5369   43.1771    7.0462 C.ar    1  UNL1        0.0527
      8 C          16.7549   43.7928    6.7734 C.ar    1  UNL1        0.0083
      9 C          17.8990   43.2971    7.4160 C.ar    1  UNL1        0.0037
     10 C          17.8036   42.2111    8.3065 C.ar    1  UNL1        0.0385
     11 C          13.2813   42.3082    7.3236 C.ar    1  UNL1        0.1656
     12 S          14.0219   43.5488    6.4311 S.2     1  UNL1       -0.0513
     13 N          14.1692   41.6174    8.0782 N.ar    1  UNL1       -0.2209
     14 O          16.4346   40.5184    9.4481 O.3     1  UNL1       -0.4739
     15 C          17.0735   38.8278   11.0496 C.3     1  UNL1        0.0512
     16 C          17.5480   39.8800   10.0643 C.3     1  UNL1        0.2056
     17 C           9.4594   42.1006    7.9909 C.3     1  UNL1        0.1144
     18 C           9.1359   40.8821    8.8452 C.3     1  UNL1        0.1599
     19 C          10.3867   40.2402    9.3696 C.2     1  UNL1        0.2547
     20 C           9.4183   38.7125    8.0588 C.2     1  UNL1        0.3139
     21 O          11.1786   40.7955   10.1771 O.2     1  UNL1       -0.2723
     22 O           9.1843   37.6465    7.4307 O.2     1  UNL1       -0.2518
     23 N          10.5585   38.9117    8.8832 N.am    1  UNL1       -0.1912
     24 N           8.5543   39.8405    8.0020 N.am    1  UNL1       -0.2815
     25 H           7.7171   39.9073    7.4884 H       1  UNL1        0.1514
     26 C          11.6307   37.9898    9.1636 C.ar    1  UNL1        0.0622
     27 C          11.4273   36.8958   10.0193 C.ar    1  UNL1        0.0154
     28 C          12.4662   36.0012   10.2912 C.ar    1  UNL1        0.0013
     29 C          13.7216   36.1915    9.7090 C.ar    1  UNL1        0.0001
     30 C          13.9371   37.2760    8.8556 C.ar    1  UNL1        0.0013
     31 C          12.8969   38.1694    8.5849 C.ar    1  UNL1        0.0154
@<TRIPOS>BOND
     1    15    16    1
     2    16    14    1
     3     5    14    1
     4     6     7   ar
     5     6    13   ar
     6     7    12   ar
     7     8     9   ar
     8    10     5   ar
     9    11    12   ar
    10    11     3    1
    11    17     1    1
    12    18    17    1
    13    18    19    1
    14    18    24    1
    15    19    23   am
    16    20    24   am
    17    27    28   ar
    18    29    30   ar
    19    31    26   ar
    20     3     1   am
    21    23    20   am
    22    23    26    1
    23     5     6   ar
    24     7     8   ar
    25     9    10   ar
    26    11    13   ar
    27     1     2    2
    28    19    21    2
    29    20    22    2
    30    26    27   ar
    31    28    29   ar
    32    30    31   ar
    33     3     4    1
    34    24    25    1
@<TRIPOS>MOLECULE
MolPort-016-717-760 MCULE-1350615302 PubChem-46974622
 31 34 0 0 0
SMALL
GASTEIGER

@<TRIPOS>ATOM
      1 C          10.7623   42.1154    7.6320 C.2     1  UNL1        0.2297
      2 O          10.9104   42.8447    8.6475 O.2     1  UNL1       -0.2746
      3 N          11.8841   41.7004    6.8439 N.am    1  UNL1       -0.2641
      4 H          11.6945   41.1122    6.0775 H       1  UNL1        0.1567
      5 C          16.3308   41.4190    8.7697 C.ar    1  UNL1        0.1566
      6 C          15.2946   41.8995    7.9630 C.ar    1  UNL1        0.1230
      7 C          15.5070   42.9752    7.1132 C.ar    1  UNL1        0.0527
      8 C          16.7378   43.6181    7.0199 C.ar    1  UNL1        0.0083
      9 C          17.7872   43.1457    7.8218 C.ar    1  UNL1        0.0037
     10 C          17.5875   42.0552    8.6894 C.ar    1  UNL1        0.0385
     11 C          13.2547   42.0566    7.0607 C.ar    1  UNL1        0.1656
     12 S          14.0894   43.3156    6.2848 S.2     1  UNL1       -0.0513
     13 N          14.0387   41.3832    7.9364 N.ar    1  UNL1       -0.2209
     14 O          16.1050   40.3298    9.6208 O.3     1  UNL1       -0.4739
     15 C          16.5424   38.7467   11.3910 C.3     1  UNL1        0.0512
     16 C          17.1384   39.6871   10.3597 C.3     1  UNL1        0.2056
     17 C           9.3910   41.6861    7.2362 C.3     1  UNL1        0.1144
     18 C           8.7979   40.7387    8.2707 C.3     1  UNL1        0.1599
     19 C           7.3083   40.8960    8.3587 C.2     1  UNL1        0.2547
     20 C           8.1042   41.4742   10.3642 C.2     1  UNL1        0.3139
     21 O           6.5141   40.6238    7.4192 O.2     1  UNL1       -0.2723
     22 O           8.1734   41.8546   11.5626 O.2     1  UNL1       -0.2518
     23 N           6.8866   41.3499    9.6421 N.am    1  UNL1       -0.1912
     24 N           9.2543   41.1292    9.6023 N.am    1  UNL1       -0.2815
     25 H          10.1875   41.1498    9.9151 H       1  UNL1        0.1514
     26 C           5.5455   41.6159   10.0989 C.ar    1  UNL1        0.0622
     27 C           4.7417   42.5621    9.4440 C.ar    1  UNL1        0.0154
     28 C           3.4410   42.8202    9.8861 C.ar    1  UNL1        0.0013
     29 C           2.9297   42.1333   10.9896 C.ar    1  UNL1        0.0001
     30 C           3.7190   41.1890   11.6500 C.ar    1  UNL1        0.0013
     31 C           5.0194   40.9323   11.2064 C.ar    1  UNL1        0.0154
@<TRIPOS>BOND
     1    15    16    1
     2    16    14    1
     3     5    14    1
     4     6     7   ar
     5     6    13   ar
     6     7    12   ar
     7     8     9   ar
     8    10     5   ar
     9    11    12   ar
    10    11     3    1
    11    17     1    1
    12    18    17    1
    13    18    19    1
    14    18    24    1
    15    19    23   am
    16    20    24   am
    17    27    28   ar
    18    29    30   ar
    19    31    26   ar
    20     3     1   am
    21    23    20   am
    22    23    26    1
    23     5     6   ar
    24     7     8   ar
    25     9    10   ar
    26    11    13   ar
    27     1     2    2
    28    19    21    2
    29    20    22    2
    30    26    27   ar
    31    28    29   ar
    32    30    31   ar
    33     3     4    1
    34    24    25    1
@<TRIPOS>MOLECULE
MolPort-016-717-760 MCULE-1350615302 PubChem-46974622
 31 34 0 0 0
SMALL
GASTEIGER

@<TRIPOS>ATOM
      1 C          11.5599   41.3065    7.6310 C.2     1  UNL1        0.2297
      2 O          12.0572   40.9382    8.7274 O.2     1  UNL1       -0.2746
      3 N          12.3197   42.0731    6.6893 N.am    1  UNL1       -0.2641
      4 H          11.8728   42.3061    5.8436 H       1  UNL1        0.1567
      5 C          16.9022   42.0213    8.2888 C.ar    1  UNL1        0.1566
      6 C          15.7718   42.4809    7.6060 C.ar    1  UNL1        0.1230
      7 C          15.8262   43.6530    6.8661 C.ar    1  UNL1        0.0527
      8 C          16.9856   44.4164    6.7656 C.ar    1  UNL1        0.0083
      9 C          18.1281   43.9666    7.4437 C.ar    1  UNL1        0.0037
     10 C          18.0889   42.7792    8.1988 C.ar    1  UNL1        0.0385
     11 C          13.6657   42.5342    6.8566 C.ar    1  UNL1        0.1656
     12 S          14.3276   43.9397    6.1706 S.2     1  UNL1       -0.0513
     13 N          14.5677   41.8526    7.6029 N.ar    1  UNL1       -0.2209
     14 O          16.8358   40.8344    9.0294 O.3     1  UNL1       -0.4739
     15 C          15.3601   38.9705    9.4531 C.3     1  UNL1        0.0512
     16 C          15.6774   40.4249    9.7486 C.3     1  UNL1        0.2056
     17 C          10.1486   40.9478    7.3132 C.3     1  UNL1        0.1144
     18 C           9.2872   42.1965    7.1784 C.3     1  UNL1        0.1599
     19 C           8.2294   42.2427    8.2416 C.2     1  UNL1        0.2547
     20 C           7.1371   42.1240    6.2968 C.2     1  UNL1        0.3139
     21 O           8.4724   42.3487    9.4735 O.2     1  UNL1       -0.2723
     22 O           6.2154   42.0670    5.4408 O.2     1  UNL1       -0.2518
     23 N           6.9129   42.1949    7.6983 N.am    1  UNL1       -0.1912
     24 N           8.5140   42.1198    5.9413 N.am    1  UNL1       -0.2815
     25 H           8.8794   42.0736    5.0283 H       1  UNL1        0.1514
     26 C           5.6549   42.2168    8.4020 C.ar    1  UNL1        0.0622
     27 C           4.9297   43.4116    8.5326 C.ar    1  UNL1        0.0154
     28 C           3.7097   43.4335    9.2144 C.ar    1  UNL1        0.0013
     29 C           3.2013   42.2588    9.7735 C.ar    1  UNL1        0.0001
     30 C           3.9130   41.0632    9.6505 C.ar    1  UNL1        0.0013
     31 C           5.1327   41.0433    8.9682 C.ar    1  UNL1        0.0154
@<TRIPOS>BOND
     1    15    16    1
     2    16    14    1
     3     5    14    1
     4     6     7   ar
     5     6    13   ar
     6     7    12   ar
     7     8     9   ar
     8    10     5   ar
     9    11    12   ar
    10    11     3    1
    11    17     1    1
    12    18    17    1
    13    18    19    1
    14    18    24    1
    15    19    23   am
    16    20    24   am
    17    27    28   ar
    18    29    30   ar
    19    31    26   ar
    20     3     1   am
    21    23    20   am
    22    23    26    1
    23     5     6   ar
    24     7     8   ar
    25     9    10   ar
    26    11    13   ar
    27     1     2    2
    28    19    21    2
    29    20    22    2
    30    26    27   ar
    31    28    29   ar
    32    30    31   ar
    33     3     4    1
    34    24    25    1
@<TRIPOS>MOLECULE
MolPort-016-717-760 MCULE-1350615302 PubChem-46974622
 31 34 0 0 0
SMALL
GASTEIGER

@<TRIPOS>ATOM
      1 C          10.9439   40.7355    7.7722 C.2     1  UNL1        0.2297
      2 O          10.4477   41.8748    7.9741 O.2     1  UNL1       -0.2746
      3 N          12.2820   40.5823    7.2845 N.am    1  UNL1       -0.2641
      4 H          12.6104   39.6611    7.1720 H       1  UNL1        0.1567
      5 C          16.4207   43.1177    7.3413 C.ar    1  UNL1        0.1566
      6 C          15.1100   42.7820    6.9885 C.ar    1  UNL1        0.1230
      7 C          14.3979   43.5719    6.0978 C.ar    1  UNL1        0.0527
      8 C          14.9405   44.7155    5.5193 C.ar    1  UNL1        0.0083
      9 C          16.2553   45.0637    5.8624 C.ar    1  UNL1        0.0037
     10 C          16.9909   44.2725    6.7650 C.ar    1  UNL1        0.0385
     11 C          13.1896   41.6373    6.9445 C.ar    1  UNL1        0.1656
     12 S          12.8698   42.9181    5.8761 S.2     1  UNL1       -0.0513
     13 N          14.4394   41.7005    7.4632 N.ar    1  UNL1       -0.2209
     14 O          17.1307   42.3102    8.2387 O.3     1  UNL1       -0.4739
     15 C          17.5538   40.4475    9.7162 C.3     1  UNL1        0.0512
     16 C          16.5092   41.3527    9.0897 C.3     1  UNL1        0.2056
     17 C          10.1174   39.5232    8.0344 C.3     1  UNL1        0.1144
     18 C          10.3600   38.9936    9.4416 C.3     1  UNL1        0.1599
     19 C          11.7556   39.2969    9.9018 C.2     1  UNL1        0.2547
     20 C          11.6025   37.0693    9.8394 C.2     1  UNL1        0.3139
     21 O          12.1978   40.4615   10.0911 O.2     1  UNL1       -0.2723
     22 O          11.8846   35.8451    9.9257 O.2     1  UNL1       -0.2518
     23 N          12.5155   38.1155   10.1417 N.am    1  UNL1       -0.1912
     24 N          10.3248   37.5334    9.4218 N.am    1  UNL1       -0.2815
     25 H           9.5569   36.9729    9.1660 H       1  UNL1        0.1514
     26 C          13.8821   38.0079   10.5877 C.ar    1  UNL1        0.0622
     27 C          14.2903   38.6040   11.7912 C.ar    1  UNL1        0.0154
     28 C          15.6150   38.4997   12.2245 C.ar    1  UNL1        0.0013
     29 C          16.5470   37.7967   11.4576 C.ar    1  UNL1        0.0001
     30 C          16.1537   37.1986   10.2582 C.ar    1  UNL1        0.0013
     31 C          14.8285   37.3040    9.8266 C.ar    1  UNL1        0.0154
@<TRIPOS>BOND
     1    15    16    1
     2    16    14    1
     3     5    14    1
     4     6     7   ar
     5     6    13   ar
     6     7    12   ar
     7     8     9   ar
     8    10     5   ar
     9    11    12   ar
    10    11     3    1
    11    17     1    1
    12    18    17    1
    13    18    19    1
    14    18    24    1
    15    19    23   am
    16    20    24   am
    17    27    28   ar
    18    29    30   ar
    19    31    26   ar
    20     3     1   am
    21    23    20   am
    22    23    26    1
    23     5     6   ar
    24     7     8   ar
    25     9    10   ar
    26    11    13   ar
    27     1     2    2
    28    19    21    2
    29    20    22    2
    30    26    27   ar
    31    28    29   ar
    32    30    31   ar
    33     3     4    1
    34    24    25    1
@<TRIPOS>MOLECULE
MolPort-016-717-760 MCULE-1350615302 PubChem-46974622
 31 34 0 0 0
SMALL
GASTEIGER

@<TRIPOS>ATOM
      1 C          11.4192   40.6362   10.4903 C.2     1  UNL1        0.2297
      2 O          10.4014   39.9611   10.7959 O.2     1  UNL1       -0.2746
      3 N          11.3031   41.8896    9.8066 N.am    1  UNL1       -0.2641
      4 H          12.1406   42.3726    9.6205 H       1  UNL1        0.1567
      5 C           7.5362   42.7755    6.8765 C.ar    1  UNL1        0.1566
      6 C           8.3628   42.8932    7.9982 C.ar    1  UNL1        0.1230
      7 C           8.0478   43.7856    9.0124 C.ar    1  UNL1        0.0527
      8 C           6.9149   44.5928    8.9681 C.ar    1  UNL1        0.0083
      9 C           6.0753   44.4842    7.8497 C.ar    1  UNL1        0.0037
     10 C           6.3813   43.5835    6.8121 C.ar    1  UNL1        0.0385
     11 C          10.0888   42.5097    9.3670 C.ar    1  UNL1        0.1656
     12 S           9.2182   43.6994   10.2101 S.2     1  UNL1       -0.0513
     13 N           9.5012   42.1783    8.1923 N.ar    1  UNL1       -0.2209
     14 O           7.8629   41.8682    5.8608 O.3     1  UNL1       -0.4739
     15 C           6.6078   39.9033    6.4896 C.3     1  UNL1        0.0512
     16 C           7.9539   40.4624    6.0672 C.3     1  UNL1        0.2056
     17 C          12.7716   40.1140   10.8365 C.3     1  UNL1        0.1144
     18 C          13.5392   39.7184    9.5820 C.3     1  UNL1        0.1599
     19 C          14.8118   40.5032    9.4551 C.2     1  UNL1        0.2547
     20 C          13.5722   41.0566    7.6812 C.2     1  UNL1        0.3139
     21 O          15.7744   40.4206   10.2639 O.2     1  UNL1       -0.2723
     22 O          13.1853   41.5898    6.6081 O.2     1  UNL1       -0.2518
     23 N          14.8276   41.3247    8.2908 N.am    1  UNL1       -0.1912
     24 N          12.7788   40.1221    8.4019 N.am    1  UNL1       -0.2815
     25 H          11.8810   39.8052    8.1513 H       1  UNL1        0.1514
     26 C          15.8693   42.2125    7.8383 C.ar    1  UNL1        0.0622
     27 C          15.5992   43.2015    6.8794 C.ar    1  UNL1        0.0154
     28 C          16.6087   44.0629    6.4406 C.ar    1  UNL1        0.0013
     29 C          17.9010   43.9443    6.9571 C.ar    1  UNL1        0.0001
     30 C          18.1829   42.9646    7.9119 C.ar    1  UNL1        0.0013
     31 C          17.1721   42.1041    8.3496 C.ar    1  UNL1        0.0154
@<TRIPOS>BOND
     1    15    16    1
     2    16    14    1
     3     5    14    1
     4     6     7   ar
     5     6    13   ar
     6     7    12   ar
     7     8     9   ar
     8    10     5   ar
     9    11    12   ar
    10    11     3    1
    11    17     1    1
    12    18    17    1
    13    18    19    1
    14    18    24    1
    15    19    23   am
    16    20    24   am
    17    27    28   ar
    18    29    30   ar
    19    31    26   ar
    20     3     1   am
    21    23    20   am
    22    23    26    1
    23     5     6   ar
    24     7     8   ar
    25     9    10   ar
    26    11    13   ar
    27     1     2    2
    28    19    21    2
    29    20    22    2
    30    26    27   ar
    31    28    29   ar
    32    30    31   ar
    33     3     4    1
    34    24    25    1
@<TRIPOS>MOLECULE
MolPort-016-717-760 MCULE-1350615302 PubChem-46974622
 31 34 0 0 0
SMALL
GASTEIGER

@<TRIPOS>ATOM
      1 C          11.1158   41.2599    5.5444 C.2     1  UNL1        0.2297
      2 O          11.7295   40.1905    5.2895 O.2     1  UNL1       -0.2746
      3 N          11.7454   42.3253    6.2659 N.am    1  UNL1       -0.2641
      4 H          11.2119   43.1403    6.4087 H       1  UNL1        0.1567
      5 C          15.5109   40.7437    8.8888 C.ar    1  UNL1        0.1566
      6 C          14.7925   41.5667    8.0159 C.ar    1  UNL1        0.1230
      7 C          15.3905   42.6842    7.4521 C.ar    1  UNL1        0.0527
      8 C          16.7102   43.0365    7.7190 C.ar    1  UNL1        0.0083
      9 C          17.4438   42.2190    8.5915 C.ar    1  UNL1        0.0037
     10 C          16.8512   41.0817    9.1719 C.ar    1  UNL1        0.0385
     11 C          13.0746   42.3220    6.8001 C.ar    1  UNL1        0.1656
     12 S          14.2858   43.4627    6.4594 S.2     1  UNL1       -0.0513
     13 N          13.4998   41.3604    7.6542 N.ar    1  UNL1       -0.2209
     14 O          14.8973   39.6161    9.4488 O.3     1  UNL1       -0.4739
     15 C          13.3147   39.5939   11.2726 C.3     1  UNL1        0.0512
     16 C          14.7618   39.4150   10.8517 C.3     1  UNL1        0.2056
     17 C           9.7026   41.4142    5.0968 C.3     1  UNL1        0.1144
     18 C           8.7576   40.6334    6.0006 C.3     1  UNL1        0.1599
     19 C           8.5233   41.3568    7.2941 C.2     1  UNL1        0.2547
     20 C           9.5189   39.4333    7.8405 C.2     1  UNL1        0.3139
     21 O           7.9438   42.4721    7.3830 O.2     1  UNL1       -0.2723
     22 O          10.0395   38.4992    8.5053 O.2     1  UNL1       -0.2518
     23 N           8.9939   40.6201    8.4196 N.am    1  UNL1       -0.1912
     24 N           9.4059   39.3945    6.4235 N.am    1  UNL1       -0.2815
     25 H           9.7091   38.6658    5.8350 H       1  UNL1        0.1514
     26 C           8.9454   40.9892    9.8122 C.ar    1  UNL1        0.0622
     27 C          10.1033   40.9435   10.6045 C.ar    1  UNL1        0.0154
     28 C          10.0572   41.3017   11.9548 C.ar    1  UNL1        0.0013
     29 C           8.8507   41.7104   12.5278 C.ar    1  UNL1        0.0001
     30 C           7.6914   41.7605   11.7503 C.ar    1  UNL1        0.0013
     31 C           7.7395   41.4019   10.4003 C.ar    1  UNL1        0.0154
@<TRIPOS>BOND
     1    15    16    1
     2    16    14    1
     3     5    14    1
     4     6     7   ar
     5     6    13   ar
     6     7    12   ar
     7     8     9   ar
     8    10     5   ar
     9    11    12   ar
    10    11     3    1
    11    17     1    1
    12    18    17    1
    13    18    19    1
    14    18    24    1
    15    19    23   am
    16    20    24   am
    17    27    28   ar
    18    29    30   ar
    19    31    26   ar
    20     3     1   am
    21    23    20   am
    22    23    26    1
    23     5     6   ar
    24     7     8   ar
    25     9    10   ar
    26    11    13   ar
    27     1     2    2
    28    19    21    2
    29    20    22    2
    30    26    27   ar
    31    28    29   ar
    32    30    31   ar
    33     3     4    1
    34    24    25    1
@<TRIPOS>MOLECULE
MolPort-016-717-760 MCULE-1350615302 PubChem-46974622
 31 34 0 0 0
SMALL
GASTEIGER

@<TRIPOS>ATOM
      1 C          10.9340   40.7619    9.2966 C.2     1  UNL1        0.2297
      2 O          10.8319   41.5949   10.2350 O.2     1  UNL1       -0.2746
      3 N           9.9501   40.6862    8.2583 N.am    1  UNL1       -0.2641
      4 H          10.1076   40.0260    7.5452 H       1  UNL1        0.1567
      5 C           5.6746   42.5369    9.6204 C.ar    1  UNL1        0.1566
      6 C           6.7935   42.3150    8.8116 C.ar    1  UNL1        0.1230
      7 C           6.9126   42.9544    7.5863 C.ar    1  UNL1        0.0527
      8 C           5.9452   43.8335    7.1086 C.ar    1  UNL1        0.0083
      9 C           4.8180   44.0674    7.9102 C.ar    1  UNL1        0.0037
     10 C           4.6825   43.4260    9.1559 C.ar    1  UNL1        0.0385
     11 C           8.7596   41.4764    8.1550 C.ar    1  UNL1        0.1656
     12 S           8.3485   42.4897    6.8557 S.2     1  UNL1       -0.0513
     13 N           7.8227   41.4893    9.1334 N.ar    1  UNL1       -0.2209
     14 O           5.5676   41.8883   10.8571 O.3     1  UNL1       -0.4739
     15 C           3.7391   40.3214   10.6762 C.3     1  UNL1        0.0512
     16 C           4.3242   41.5003   11.4319 C.3     1  UNL1        0.2056
     17 C          12.0957   39.8284    9.2733 C.3     1  UNL1        0.1144
     18 C          13.2402   40.3632   10.1239 C.3     1  UNL1        0.1599
     19 C          14.5706   40.0051    9.5294 C.2     1  UNL1        0.2547
     20 C          14.4933   38.9849   11.5150 C.2     1  UNL1        0.3139
     21 O          14.9842   40.4325    8.4185 O.2     1  UNL1       -0.2723
     22 O          14.8026   38.2919   12.5199 O.2     1  UNL1       -0.2518
     23 N          15.3348   39.1577   10.3831 N.am    1  UNL1       -0.1912
     24 N          13.2519   39.6705   11.4100 N.am    1  UNL1       -0.2815
     25 H          12.5319   39.6773   12.0814 H       1  UNL1        0.1514
     26 C          16.6486   38.6101   10.1542 C.ar    1  UNL1        0.0622
     27 C          17.7916   39.4135   10.2905 C.ar    1  UNL1        0.0154
     28 C          19.0657   38.8832   10.0693 C.ar    1  UNL1        0.0013
     29 C          19.2104   37.5414    9.7089 C.ar    1  UNL1        0.0001
     30 C          18.0811   36.7312    9.5702 C.ar    1  UNL1        0.0013
     31 C          16.8079   37.2634    9.7919 C.ar    1  UNL1        0.0154
@<TRIPOS>BOND
     1    15    16    1
     2    16    14    1
     3     5    14    1
     4     6     7   ar
     5     6    13   ar
     6     7    12   ar
     7     8     9   ar
     8    10     5   ar
     9    11    12   ar
    10    11     3    1
    11    17     1    1
    12    18    17    1
    13    18    19    1
    14    18    24    1
    15    19    23   am
    16    20    24   am
    17    27    28   ar
    18    29    30   ar
    19    31    26   ar
    20     3     1   am
    21    23    20   am
    22    23    26    1
    23     5     6   ar
    24     7     8   ar
    25     9    10   ar
    26    11    13   ar
    27     1     2    2
    28    19    21    2
    29    20    22    2
    30    26    27   ar
    31    28    29   ar
    32    30    31   ar
    33     3     4    1
    34    24    25    1
@<TRIPOS>MOLECULE
MolPort-016-717-760 MCULE-1350615302 PubChem-46974622
 31 34 0 0 0
SMALL
GASTEIGER

@<TRIPOS>ATOM
      1 C          10.3593   40.8780    9.6963 C.2     1  UNL1        0.2297
      2 O          10.7403   42.0743    9.7907 O.2     1  UNL1       -0.2746
      3 N           9.0403   40.5506    9.2436 N.am    1  UNL1       -0.2641
      4 H           8.8202   39.5936    9.1735 H       1  UNL1        0.1567
      5 C           4.7710   42.8395    9.5502 C.ar    1  UNL1        0.1566
      6 C           6.0372   42.5172    9.0520 C.ar    1  UNL1        0.1230
      7 C           6.5473   43.1821    7.9465 C.ar    1  UNL1        0.0527
      8 C           5.8406   44.1853    7.2900 C.ar    1  UNL1        0.0083
      9 C           4.5696   44.5207    7.7798 C.ar    1  UNL1        0.0037
     10 C           4.0380   43.8550    8.9005 C.ar    1  UNL1        0.0385
     11 C           8.0099   41.4781    8.8828 C.ar    1  UNL1        0.1656
     12 S           8.0710   42.5789    7.5910 S.2     1  UNL1       -0.0513
     13 N           6.8507   41.5655    9.5783 N.ar    1  UNL1       -0.2209
     14 O           4.2684   42.1636   10.6692 O.3     1  UNL1       -0.4739
     15 C           3.8182   40.0098   11.6640 C.3     1  UNL1        0.0512
     16 C           4.8782   41.0009   11.2199 C.3     1  UNL1        0.2056
     17 C          11.2960   39.7823   10.0750 C.3     1  UNL1        0.1144
     18 C          12.2407   39.4532    8.9266 C.3     1  UNL1        0.1599
     19 C          13.3648   40.4440    8.8486 C.2     1  UNL1        0.2547
     20 C          12.2300   40.6546    6.9362 C.2     1  UNL1        0.3139
     21 O          14.2425   40.5858    9.7415 O.2     1  UNL1       -0.2723
     22 O          11.8648   41.0419    5.7950 O.2     1  UNL1       -0.2518
     23 N          13.3536   41.1809    7.6289 N.am    1  UNL1       -0.1912
     24 N          11.5425   39.6398    7.6571 N.am    1  UNL1       -0.2815
     25 H          10.7421   39.1521    7.3557 H       1  UNL1        0.1514
     26 C          14.2660   42.2110    7.1995 C.ar    1  UNL1        0.0622
     27 C          15.5674   42.2764    7.7217 C.ar    1  UNL1        0.0154
     28 C          16.4528   43.2746    7.3055 C.ar    1  UNL1        0.0013
     29 C          16.0454   44.2195    6.3608 C.ar    1  UNL1        0.0001
     30 C          14.7533   44.1654    5.8331 C.ar    1  UNL1        0.0013
     31 C          13.8694   43.1664    6.2506 C.ar    1  UNL1        0.0154
@<TRIPOS>BOND
     1    15    16    1
     2    16    14    1
     3     5    14    1
     4     6     7   ar
     5     6    13   ar
     6     7    12   ar
     7     8     9   ar
     8    10     5   ar
     9    11    12   ar
    10    11     3    1
    11    17     1    1
    12    18    17    1
    13    18    19    1
    14    18    24    1
    15    19    23   am
    16    20    24   am
    17    27    28   ar
    18    29    30   ar
    19    31    26   ar
    20     3     1   am
    21    23    20   am
    22    23    26    1
    23     5     6   ar
    24     7     8   ar
    25     9    10   ar
    26    11    13   ar
    27     1     2    2
    28    19    21    2
    29    20    22    2
    30    26    27   ar
    31    28    29   ar
    32    30    31   ar
    33     3     4    1
    34    24    25    1
@<TRIPOS>MOLECULE
MolPort-016-717-760 MCULE-1350615302 PubChem-46974622
 31 34 0 0 0
SMALL
GASTEIGER

@<TRIPOS>ATOM
      1 C          10.0290   40.0622    8.5371 C.2     1  UNL1        0.2297
      2 O           9.6661   39.9953    7.3335 O.2     1  UNL1       -0.2746
      3 N           9.2987   40.8406    9.4925 N.am    1  UNL1       -0.2641
      4 H           9.6283   40.8278   10.4201 H       1  UNL1        0.1567
      5 C           4.5772   41.9597    9.3682 C.ar    1  UNL1        0.1566
      6 C           5.9544   42.1244    9.1907 C.ar    1  UNL1        0.1230
      7 C           6.4572   43.2960    8.6441 C.ar    1  UNL1        0.0527
      8 C           5.6341   44.3480    8.2533 C.ar    1  UNL1        0.0083
      9 C           4.2503   44.1978    8.4271 C.ar    1  UNL1        0.0037
     10 C           3.7246   43.0148    8.9802 C.ar    1  UNL1        0.0385
     11 C           8.1361   41.6360    9.2314 C.ar    1  UNL1        0.1656
     12 S           8.1288   43.1951    8.5582 S.2     1  UNL1       -0.0513
     13 N           6.8883   41.1951    9.5206 N.ar    1  UNL1       -0.2209
     14 O           4.0820   40.7737    9.9246 O.3     1  UNL1       -0.4739
     15 C           3.1326   41.6426   11.9678 C.3     1  UNL1        0.0512
     16 C           3.9729   40.5534   11.3269 C.3     1  UNL1        0.2056
     17 C          11.2497   39.3264    8.9728 C.3     1  UNL1        0.1144
     18 C          12.2541   40.2726    9.6173 C.3     1  UNL1        0.1599
     19 C          12.6236   41.3883    8.6844 C.2     1  UNL1        0.2547
     20 C          14.5096   40.2497    9.0538 C.2     1  UNL1        0.3139
     21 O          11.8148   42.2656    8.2797 O.2     1  UNL1       -0.2723
     22 O          15.7129   39.8802    9.0217 O.2     1  UNL1       -0.2518
     23 N          14.0059   41.3696    8.3385 N.am    1  UNL1       -0.1912
     24 N          13.5200   39.5716    9.8173 N.am    1  UNL1       -0.2815
     25 H          13.6621   38.7751   10.3783 H       1  UNL1        0.1514
     26 C          14.7221   42.2729    7.4729 C.ar    1  UNL1        0.0622
     27 C          14.1095   42.7991    6.3247 C.ar    1  UNL1        0.0154
     28 C          14.8031   43.6753    5.4852 C.ar    1  UNL1        0.0013
     29 C          16.1189   44.0352    5.7858 C.ar    1  UNL1        0.0001
     30 C          16.7399   43.5189    6.9253 C.ar    1  UNL1        0.0013
     31 C          16.0446   42.6428    7.7636 C.ar    1  UNL1        0.0154
@<TRIPOS>BOND
     1    15    16    1
     2    16    14    1
     3     5    14    1
     4     6     7   ar
     5     6    13   ar
     6     7    12   ar
     7     8     9   ar
     8    10     5   ar
     9    11    12   ar
    10    11     3    1
    11    17     1    1
    12    18    17    1
    13    18    19    1
    14    18    24    1
    15    19    23   am
    16    20    24   am
    17    27    28   ar
    18    29    30   ar
    19    31    26   ar
    20     3     1   am
    21    23    20   am
    22    23    26    1
    23     5     6   ar
    24     7     8   ar
    25     9    10   ar
    26    11    13   ar
    27     1     2    2
    28    19    21    2
    29    20    22    2
    30    26    27   ar
    31    28    29   ar
    32    30    31   ar
    33     3     4    1
    34    24    25    1
