@<TRIPOS>MOLECULE
MolPort-051-666-335 MCULE-6430684612 MCULE-9826297176
 21 23 0 0 0
SMALL
GASTEIGER

@<TRIPOS>ATOM
      1 C          12.1963   41.5476    7.8848 C.ar    1  UNL1        0.2218
      2 C          11.3676   41.4617   10.1005 C.ar    1  UNL1        0.1031
      3 C          11.6375   40.0964   10.1603 C.ar    1  UNL1        0.0355
      4 C          12.1992   39.4786    9.0380 C.ar    1  UNL1        0.0644
      5 N          11.6498   42.1601    8.9707 N.ar    1  UNL1       -0.2120
      6 N          12.4654   40.2160    7.9278 N.ar    1  UNL1       -0.2179
      7 C          12.5124   38.0168    9.0380 C.3     1  UNL1        0.0562
      8 C          11.9343   37.3234   10.2730 C.3     1  UNL1        0.0087
      9 C          12.2968   35.8358   10.2875 C.3     1  UNL1        0.0175
     10 C          13.6970   35.5673    9.7212 C.3     1  UNL1        0.0686
     11 C          14.0250   37.7704    8.8778 C.3     1  UNL1        0.0745
     12 N          14.5336   36.7617    9.8127 N.3     1  UNL1       -0.2971
     13 H          15.4959   36.5251    9.5709 H       1  UNL1        0.1233
     14 N          12.4941   42.2833    6.6931 N.pl3   1  UNL1       -0.2628
     15 H          11.8266   42.2584    5.9699 H       1  UNL1        0.1570
     16 C          13.6795   43.0518    6.4637 C.ar    1  UNL1        0.1654
     17 C          15.9172   43.9895    6.3941 C.ar    1  UNL1        0.0293
     18 C          14.9809   44.6922    5.6477 C.ar    1  UNL1        0.1030
     19 C          17.3542   44.3450    6.5241 C.3     1  UNL1        0.0399
     20 S          15.1747   42.6727    7.1294 S.2     1  UNL1       -0.0557
     21 N          13.7299   44.1606    5.6919 N.ar    1  UNL1       -0.2227
@<TRIPOS>BOND
     1    16    20   ar
     2    16    14    1
     3    17    20   ar
     4    18    21   ar
     5    19    17    1
     6     1     6   ar
     7     2     5   ar
     8     3     4   ar
     9     7     4    1
    10     7     8    1
    11     8     9    1
    12     9    10    1
    13    10    12    1
    14    11    12    1
    15    11     7    1
    16    14     1    1
    17    16    21   ar
    18    17    18   ar
    19     1     5   ar
    20     2     3   ar
    21     4     6   ar
    22    14    15    1
    23    12    13    1
@<TRIPOS>MOLECULE
MolPort-051-666-335 MCULE-6430684612 MCULE-9826297176
 21 23 0 0 0
SMALL
GASTEIGER

@<TRIPOS>ATOM
      1 C          11.5310   41.6449    7.2320 C.ar    1  UNL1        0.2218
      2 C           9.4818   41.6654    8.4168 C.ar    1  UNL1        0.1031
      3 C          10.0148   40.8068    9.3755 C.ar    1  UNL1        0.0355
      4 C          11.3383   40.3796    9.2252 C.ar    1  UNL1        0.0644
      5 N          10.2443   42.0676    7.3675 N.ar    1  UNL1       -0.2120
      6 N          12.0653   40.8069    8.1593 N.ar    1  UNL1       -0.2179
      7 C          11.9690   39.4580   10.2190 C.3     1  UNL1        0.0562
      8 C          13.3473   39.9626   10.6499 C.3     1  UNL1        0.0087
      9 C          14.0047   38.9910   11.6340 C.3     1  UNL1        0.0175
     10 C          13.6809   37.5254   11.3166 C.3     1  UNL1        0.0686
     11 C          12.0100   38.0112    9.6904 C.3     1  UNL1        0.0745
     12 N          13.3082   37.3667    9.9128 N.3     1  UNL1       -0.2971
     13 H          13.2411   36.3744    9.6864 H       1  UNL1        0.1233
     14 N          12.3356   42.0684    6.1260 N.pl3   1  UNL1       -0.2628
     15 H          12.0703   41.7566    5.2306 H       1  UNL1        0.1570
     16 C          13.4927   42.9065    6.2111 C.ar    1  UNL1        0.1654
     17 C          15.6448   43.9332    6.6645 C.ar    1  UNL1        0.0293
     18 C          14.8126   44.6892    5.8500 C.ar    1  UNL1        0.1030
     19 C          17.0114   44.3255    7.0965 C.3     1  UNL1        0.0399
     20 S          14.8679   42.5037    7.0879 S.2     1  UNL1       -0.0557
     21 N          13.6090   44.1073    5.6007 N.ar    1  UNL1       -0.2227
@<TRIPOS>BOND
     1    16    20   ar
     2    16    14    1
     3    17    20   ar
     4    18    21   ar
     5    19    17    1
     6     1     6   ar
     7     2     5   ar
     8     3     4   ar
     9     7     4    1
    10     7     8    1
    11     8     9    1
    12     9    10    1
    13    10    12    1
    14    11    12    1
    15    11     7    1
    16    14     1    1
    17    16    21   ar
    18    17    18   ar
    19     1     5   ar
    20     2     3   ar
    21     4     6   ar
    22    14    15    1
    23    12    13    1
@<TRIPOS>MOLECULE
MolPort-051-666-335 MCULE-6430684612 MCULE-9826297176
 21 23 0 0 0
SMALL
GASTEIGER

@<TRIPOS>ATOM
      1 C          11.6384   41.5750    6.7718 C.ar    1  UNL1        0.2218
      2 C          11.4935   39.8392    8.3748 C.ar    1  UNL1        0.1031
      3 C          10.1533   40.1445    8.6006 C.ar    1  UNL1        0.0355
      4 C           9.5782   41.1945    7.8771 C.ar    1  UNL1        0.0644
      5 N          12.2092   40.5552    7.4696 N.ar    1  UNL1       -0.2120
      6 N          10.3316   41.8849    6.9810 N.ar    1  UNL1       -0.2179
      7 C           8.1451   41.5723    8.0731 C.3     1  UNL1        0.0562
      8 C           7.8029   42.8642    7.3288 C.3     1  UNL1        0.0087
      9 C           6.3456   43.2674    7.5704 C.3     1  UNL1        0.0175
     10 C           5.8733   42.9377    8.9922 C.3     1  UNL1        0.0686
     11 C           7.7863   41.6420    9.5700 C.3     1  UNL1        0.0745
     12 N           7.0076   42.8377    9.9077 N.3     1  UNL1       -0.2971
     13 H           6.6682   42.7657   10.8669 H       1  UNL1        0.1233
     14 N          12.3923   42.3304    5.8174 N.pl3   1  UNL1       -0.2628
     15 H          12.0642   42.3386    4.8892 H       1  UNL1        0.1570
     16 C          13.5822   43.0747    6.0977 C.ar    1  UNL1        0.1654
     17 C          15.7244   43.9111    6.8741 C.ar    1  UNL1        0.0293
     18 C          15.0500   44.7748    6.0217 C.ar    1  UNL1        0.1030
     19 C          17.0501   44.1748    7.4916 C.3     1  UNL1        0.0399
     20 S          14.8098   42.5190    7.1010 S.2     1  UNL1       -0.0557
     21 N          13.8509   44.2991    5.5912 N.ar    1  UNL1       -0.2227
@<TRIPOS>BOND
     1    16    20   ar
     2    16    14    1
     3    17    20   ar
     4    18    21   ar
     5    19    17    1
     6     1     6   ar
     7     2     5   ar
     8     3     4   ar
     9     7     4    1
    10     7     8    1
    11     8     9    1
    12     9    10    1
    13    10    12    1
    14    11    12    1
    15    11     7    1
    16    14     1    1
    17    16    21   ar
    18    17    18   ar
    19     1     5   ar
    20     2     3   ar
    21     4     6   ar
    22    14    15    1
    23    12    13    1
@<TRIPOS>MOLECULE
MolPort-051-666-335 MCULE-6430684612 MCULE-9826297176
 21 23 0 0 0
SMALL
GASTEIGER

@<TRIPOS>ATOM
      1 C          10.9933   41.8582    6.3128 C.ar    1  UNL1        0.2218
      2 C           8.6355   41.8591    6.1016 C.ar    1  UNL1        0.1031
      3 C           8.5005   41.9461    7.4853 C.ar    1  UNL1        0.0355
      4 C           9.6601   41.9881    8.2664 C.ar    1  UNL1        0.0644
      5 N           9.8722   41.8169    5.5420 N.ar    1  UNL1       -0.2120
      6 N          10.8778   41.9432    7.6645 N.ar    1  UNL1       -0.2179
      7 C           9.5834   42.0812    9.7566 C.3     1  UNL1        0.0562
      8 C          10.4509   41.0141   10.4266 C.3     1  UNL1        0.0087
      9 C          10.3325   41.0883   11.9514 C.3     1  UNL1        0.0175
     10 C           8.9197   41.4689   12.4126 C.3     1  UNL1        0.0686
     11 C           8.1219   42.0434   10.2433 C.3     1  UNL1        0.0745
     12 N           7.9317   41.1446   11.3862 N.3     1  UNL1       -0.2971
     13 H           6.9923   41.2659   11.7646 H       1  UNL1        0.1233
     14 N          12.2975   41.8137    5.7237 N.pl3   1  UNL1       -0.2628
     15 H          12.4597   41.1235    5.0405 H       1  UNL1        0.1570
     16 C          13.3855   42.6870    6.0432 C.ar    1  UNL1        0.1654
     17 C          15.3845   43.7635    6.9012 C.ar    1  UNL1        0.0293
     18 C          14.6646   44.5342    5.9983 C.ar    1  UNL1        0.1030
     19 C          16.6420   44.1797    7.5748 C.3     1  UNL1        0.0399
     20 S          14.6141   42.2848    7.1161 S.2     1  UNL1       -0.0557
     21 N          13.5463   43.9242    5.5223 N.ar    1  UNL1       -0.2227
@<TRIPOS>BOND
     1    16    20   ar
     2    16    14    1
     3    17    20   ar
     4    18    21   ar
     5    19    17    1
     6     1     6   ar
     7     2     5   ar
     8     3     4   ar
     9     7     4    1
    10     7     8    1
    11     8     9    1
    12     9    10    1
    13    10    12    1
    14    11    12    1
    15    11     7    1
    16    14     1    1
    17    16    21   ar
    18    17    18   ar
    19     1     5   ar
    20     2     3   ar
    21     4     6   ar
    22    14    15    1
    23    12    13    1
@<TRIPOS>MOLECULE
MolPort-051-666-335 MCULE-6430684612 MCULE-9826297176
 21 23 0 0 0
SMALL
GASTEIGER

@<TRIPOS>ATOM
      1 C          12.4356   41.8627    8.0655 C.ar    1  UNL1        0.2218
      2 C          13.0552   40.3184    9.7492 C.ar    1  UNL1        0.1031
      3 C          11.8969   40.6156   10.4636 C.ar    1  UNL1        0.0355
      4 C          11.0127   41.5621    9.9353 C.ar    1  UNL1        0.0644
      5 N          13.3036   40.9432    8.5693 N.ar    1  UNL1       -0.2120
      6 N          11.3010   42.1633    8.7509 N.ar    1  UNL1       -0.2179
      7 C           9.7526   41.9255   10.6529 C.3     1  UNL1        0.0562
      8 C           9.5690   41.0838   11.9169 C.3     1  UNL1        0.0087
      9 C           8.2550   41.4315   12.6220 C.3     1  UNL1        0.0175
     10 C           7.1295   41.7655   11.6345 C.3     1  UNL1        0.0686
     11 C           8.5340   41.8507    9.7129 C.3     1  UNL1        0.0745
     12 N           7.3901   41.1686   10.3266 N.3     1  UNL1       -0.2971
     13 H           6.5684   41.2752    9.7317 H       1  UNL1        0.1233
     14 N          12.6967   42.5219    6.8216 N.pl3   1  UNL1       -0.2628
     15 H          11.9995   42.4685    6.1286 H       1  UNL1        0.1570
     16 C          13.8850   43.2519    6.4999 C.ar    1  UNL1        0.1654
     17 C          16.1408   44.1119    6.2485 C.ar    1  UNL1        0.0293
     18 C          15.1699   44.8578    5.5939 C.ar    1  UNL1        0.1030
     19 C          17.5955   44.4151    6.2583 C.3     1  UNL1        0.0399
     20 S          15.4171   42.8111    7.0298 S.2     1  UNL1       -0.0557
     21 N          13.9090   44.3695    5.7395 N.ar    1  UNL1       -0.2227
@<TRIPOS>BOND
     1    16    20   ar
     2    16    14    1
     3    17    20   ar
     4    18    21   ar
     5    19    17    1
     6     1     6   ar
     7     2     5   ar
     8     3     4   ar
     9     7     4    1
    10     7     8    1
    11     8     9    1
    12     9    10    1
    13    10    12    1
    14    11    12    1
    15    11     7    1
    16    14     1    1
    17    16    21   ar
    18    17    18   ar
    19     1     5   ar
    20     2     3   ar
    21     4     6   ar
    22    14    15    1
    23    12    13    1
@<TRIPOS>MOLECULE
MolPort-051-666-335 MCULE-6430684612 MCULE-9826297176
 21 23 0 0 0
SMALL
GASTEIGER

@<TRIPOS>ATOM
      1 C           6.7061   41.1583    7.6308 C.ar    1  UNL1        0.2218
      2 C           8.2225   42.3344    6.2447 C.ar    1  UNL1        0.1031
      3 C           9.2990   41.7462    6.9047 C.ar    1  UNL1        0.0355
      4 C           9.0335   40.8496    7.9450 C.ar    1  UNL1        0.0644
      5 N           6.9518   42.0323    6.6166 N.ar    1  UNL1       -0.2120
      6 N           7.7461   40.5762    8.2843 N.ar    1  UNL1       -0.2179
      7 C          10.1443   40.1850    8.6929 C.3     1  UNL1        0.0562
      8 C          11.2334   41.1873    9.0791 C.3     1  UNL1        0.0087
      9 C          12.3874   40.4911    9.8059 C.3     1  UNL1        0.0175
     10 C          12.6616   39.0841    9.2595 C.3     1  UNL1        0.0686
     11 C          10.7023   38.9812    7.9094 C.3     1  UNL1        0.0745
     12 N          12.1682   38.9517    7.8906 N.3     1  UNL1       -0.2971
     13 H          12.4879   38.0674    7.4954 H       1  UNL1        0.1233
     14 N           5.3667   40.8394    8.0235 N.pl3   1  UNL1       -0.2628
     15 H           4.8256   40.3126    7.3919 H       1  UNL1        0.1570
     16 C           4.7474   41.2211    9.2561 C.ar    1  UNL1        0.1654
     17 C           3.2474   41.8578   11.0550 C.ar    1  UNL1        0.0293
     18 C           4.5817   41.7708   11.4289 C.ar    1  UNL1        0.1030
     19 C           2.1251   42.2263   11.9565 C.3     1  UNL1        0.0399
     20 S           3.0962   41.4818    9.4235 S.2     1  UNL1       -0.0557
     21 N           5.4155   41.4137   10.4156 N.ar    1  UNL1       -0.2227
@<TRIPOS>BOND
     1    16    20   ar
     2    16    14    1
     3    17    20   ar
     4    18    21   ar
     5    19    17    1
     6     1     6   ar
     7     2     5   ar
     8     3     4   ar
     9     7     4    1
    10     7     8    1
    11     8     9    1
    12     9    10    1
    13    10    12    1
    14    11    12    1
    15    11     7    1
    16    14     1    1
    17    16    21   ar
    18    17    18   ar
    19     1     5   ar
    20     2     3   ar
    21     4     6   ar
    22    14    15    1
    23    12    13    1
@<TRIPOS>MOLECULE
MolPort-051-666-335 MCULE-6430684612 MCULE-9826297176
 21 23 0 0 0
SMALL
GASTEIGER

@<TRIPOS>ATOM
      1 C          14.2442   40.0364    9.3165 C.ar    1  UNL1        0.2218
      2 C          12.9795   38.1239    9.9053 C.ar    1  UNL1        0.1031
      3 C          11.8577   38.9199   10.1253 C.ar    1  UNL1        0.0355
      4 C          11.9704   40.2998    9.9260 C.ar    1  UNL1        0.0644
      5 N          14.1468   38.6921    9.5069 N.ar    1  UNL1       -0.2120
      6 N          13.1583   40.8263    9.5271 N.ar    1  UNL1       -0.2179
      7 C          10.8039   41.2087   10.1452 C.3     1  UNL1        0.0562
      8 C          10.1469   40.9540   11.5030 C.3     1  UNL1        0.0087
      9 C           8.9272   41.8583   11.7009 C.3     1  UNL1        0.0175
     10 C           8.1541   42.0949   10.3971 C.3     1  UNL1        0.0686
     11 C           9.8006   41.1197    8.9792 C.3     1  UNL1        0.0745
     12 N           8.4111   41.0234    9.4376 N.3     1  UNL1       -0.2971
     13 H           7.7805   41.1182    8.6414 H       1  UNL1        0.1233
     14 N          15.4746   40.6362    8.8966 N.pl3   1  UNL1       -0.2628
     15 H          16.3084   40.1786    9.1507 H       1  UNL1        0.1570
     16 C          15.5956   41.8445    8.1390 C.ar    1  UNL1        0.1654
     17 C          15.3333   43.7378    6.6430 C.ar    1  UNL1        0.0293
     18 C          16.4904   43.7726    7.4095 C.ar    1  UNL1        0.1030
     19 C          14.9291   44.7673    5.6506 C.3     1  UNL1        0.0399
     20 S          14.4585   42.3500    7.0103 S.2     1  UNL1       -0.0557
     21 N          16.6300   42.7086    8.2449 N.ar    1  UNL1       -0.2227
@<TRIPOS>BOND
     1    16    20   ar
     2    16    14    1
     3    17    20   ar
     4    18    21   ar
     5    19    17    1
     6     1     6   ar
     7     2     5   ar
     8     3     4   ar
     9     7     4    1
    10     7     8    1
    11     8     9    1
    12     9    10    1
    13    10    12    1
    14    11    12    1
    15    11     7    1
    16    14     1    1
    17    16    21   ar
    18    17    18   ar
    19     1     5   ar
    20     2     3   ar
    21     4     6   ar
    22    14    15    1
    23    12    13    1
@<TRIPOS>MOLECULE
MolPort-051-666-335 MCULE-6430684612 MCULE-9826297176
 21 23 0 0 0
SMALL
GASTEIGER

@<TRIPOS>ATOM
      1 C          11.2357   41.4726    7.1694 C.ar    1  UNL1        0.2218
      2 C          10.9069   39.7269    8.7340 C.ar    1  UNL1        0.1031
      3 C           9.6123   40.1776    8.9816 C.ar    1  UNL1        0.0355
      4 C           9.1549   41.3033    8.2885 C.ar    1  UNL1        0.0644
      5 N          11.6921   40.3780    7.8375 N.ar    1  UNL1       -0.2120
      6 N           9.9747   41.9244    7.4001 N.ar    1  UNL1       -0.2179
      7 C           7.7760   41.8373    8.5090 C.3     1  UNL1        0.0562
      8 C           7.2585   41.4839    9.9044 C.3     1  UNL1        0.0087
      9 C           5.8297   41.9963   10.1061 C.3     1  UNL1        0.0175
     10 C           4.9896   41.9118    8.8253 C.3     1  UNL1        0.0686
     11 C           6.8167   41.3827    7.3921 C.3     1  UNL1        0.0745
     12 N           5.5309   40.9074    7.9127 N.3     1  UNL1       -0.2971
     13 H           4.8815   40.7614    7.1398 H       1  UNL1        0.1233
     14 N          12.0629   42.1597    6.2240 N.pl3   1  UNL1       -0.2628
     15 H          11.6691   42.3624    5.3448 H       1  UNL1        0.1570
     16 C          13.4135   42.5768    6.4484 C.ar    1  UNL1        0.1654
     17 C          15.5734   43.6831    6.4953 C.ar    1  UNL1        0.0293
     18 C          15.5012   42.5397    7.2795 C.ar    1  UNL1        0.1030
     19 C          16.7732   44.5467    6.3443 C.3     1  UNL1        0.0399
     20 S          14.0931   43.9410    5.7415 S.2     1  UNL1       -0.0557
     21 N          14.2881   41.9258    7.2478 N.ar    1  UNL1       -0.2227
@<TRIPOS>BOND
     1    16    20   ar
     2    16    14    1
     3    17    20   ar
     4    18    21   ar
     5    19    17    1
     6     1     6   ar
     7     2     5   ar
     8     3     4   ar
     9     7     4    1
    10     7     8    1
    11     8     9    1
    12     9    10    1
    13    10    12    1
    14    11    12    1
    15    11     7    1
    16    14     1    1
    17    16    21   ar
    18    17    18   ar
    19     1     5   ar
    20     2     3   ar
    21     4     6   ar
    22    14    15    1
    23    12    13    1
@<TRIPOS>MOLECULE
MolPort-051-666-335 MCULE-6430684612 MCULE-9826297176
 21 23 0 0 0
SMALL
GASTEIGER

@<TRIPOS>ATOM
      1 C           9.9596   41.3916    5.8553 C.ar    1  UNL1        0.2218
      2 C           8.7357   39.3720    5.6903 C.ar    1  UNL1        0.1031
      3 C           7.6109   39.9972    6.2236 C.ar    1  UNL1        0.0355
      4 C           7.7011   41.3500    6.5680 C.ar    1  UNL1        0.0644
      5 N           9.8842   40.0755    5.5161 N.ar    1  UNL1       -0.2120
      6 N           8.8706   42.0155    6.3768 N.ar    1  UNL1       -0.2179
      7 C           6.5302   42.0788    7.1450 C.3     1  UNL1        0.0562
      8 C           6.6927   43.5933    7.0045 C.3     1  UNL1        0.0087
      9 C           5.5106   44.3332    7.6368 C.3     1  UNL1        0.0175
     10 C           4.9860   43.6331    8.8970 C.3     1  UNL1        0.0686
     11 C           6.2664   41.6469    8.6004 C.3     1  UNL1        0.0745
     12 N           6.0183   42.7859    9.4899 N.3     1  UNL1       -0.2971
     13 H           5.7033   42.4480   10.3993 H       1  UNL1        0.1233
     14 N          11.1702   42.1339    5.6720 N.pl3   1  UNL1       -0.2628
     15 H          11.1744   42.8215    4.9675 H       1  UNL1        0.1570
     16 C          12.3746   41.9614    6.4258 C.ar    1  UNL1        0.1654
     17 C          14.5898   42.0827    7.4104 C.ar    1  UNL1        0.0293
     18 C          13.7873   41.0777    7.9337 C.ar    1  UNL1        0.1030
     19 C          15.9843   42.3754    7.8320 C.3     1  UNL1        0.0399
     20 S          13.7404   42.9186    6.2247 S.2     1  UNL1       -0.0557
     21 N          12.5481   41.0164    7.3770 N.ar    1  UNL1       -0.2227
@<TRIPOS>BOND
     1    16    20   ar
     2    16    14    1
     3    17    20   ar
     4    18    21   ar
     5    19    17    1
     6     1     6   ar
     7     2     5   ar
     8     3     4   ar
     9     7     4    1
    10     7     8    1
    11     8     9    1
    12     9    10    1
    13    10    12    1
    14    11    12    1
    15    11     7    1
    16    14     1    1
    17    16    21   ar
    18    17    18   ar
    19     1     5   ar
    20     2     3   ar
    21     4     6   ar
    22    14    15    1
    23    12    13    1
@<TRIPOS>MOLECULE
MolPort-051-666-335 MCULE-6430684612 MCULE-9826297176
 21 23 0 0 0
SMALL
GASTEIGER

@<TRIPOS>ATOM
      1 C          11.6788   40.9744    7.2287 C.ar    1  UNL1        0.2218
      2 C          10.2723   41.3308    5.3582 C.ar    1  UNL1        0.1031
      3 C           9.1477   41.2668    6.1777 C.ar    1  UNL1        0.0355
      4 C           9.3328   41.0506    7.5473 C.ar    1  UNL1        0.0644
      5 N          11.5115   41.1845    5.8942 N.ar    1  UNL1       -0.2120
      6 N          10.5911   40.9095    8.0412 N.ar    1  UNL1       -0.2179
      7 C           8.1673   40.9714    8.4802 C.3     1  UNL1        0.0562
      8 C           6.8708   41.3974    7.7890 C.3     1  UNL1        0.0087
      9 C           5.6901   41.3554    8.7629 C.3     1  UNL1        0.0175
     10 C           6.0877   41.7692   10.1857 C.3     1  UNL1        0.0686
     11 C           8.4335   41.7649    9.7740 C.3     1  UNL1        0.0745
     12 N           7.2922   42.5960   10.1701 N.3     1  UNL1       -0.2971
     13 H           7.4555   42.9808   11.1005 H       1  UNL1        0.1233
     14 N          12.9849   40.8200    7.7946 N.pl3   1  UNL1       -0.2628
     15 H          13.1347   40.0389    8.3749 H       1  UNL1        0.1570
     16 C          14.0912   41.7043    7.5885 C.ar    1  UNL1        0.1654
     17 C          15.6212   43.4685    6.9266 C.ar    1  UNL1        0.0293
     18 C          16.1728   42.5279    7.7860 C.ar    1  UNL1        0.1030
     19 C          16.3353   44.6470    6.3703 C.3     1  UNL1        0.0399
     20 S          14.0190   43.0690    6.6113 S.2     1  UNL1       -0.0557
     21 N          15.3095   41.5431    8.1521 N.ar    1  UNL1       -0.2227
@<TRIPOS>BOND
     1    16    20   ar
     2    16    14    1
     3    17    20   ar
     4    18    21   ar
     5    19    17    1
     6     1     6   ar
     7     2     5   ar
     8     3     4   ar
     9     7     4    1
    10     7     8    1
    11     8     9    1
    12     9    10    1
    13    10    12    1
    14    11    12    1
    15    11     7    1
    16    14     1    1
    17    16    21   ar
    18    17    18   ar
    19     1     5   ar
    20     2     3   ar
    21     4     6   ar
    22    14    15    1
    23    12    13    1
