@<TRIPOS>MOLECULE
MolPort-035-706-972 CSSS03437789227 MCULE-3011014739 PubChem-91938297
 30 32 0 0 0
SMALL
GASTEIGER

@<TRIPOS>ATOM
      1 C          16.0174   38.7892   10.5022 C.3     1  UNL1        0.2880
      2 C          15.5847   38.6807   11.9576 C.3     1  UNL1        0.0650
      3 C          14.9018   40.3738    8.8974 C.ar    1  UNL1        0.1542
      4 C          13.7597   40.6901    8.1558 C.ar    1  UNL1        0.0529
      5 C          13.7549   41.7934    7.2950 C.ar    1  UNL1        0.0534
      6 C          14.9101   42.5831    7.1843 C.ar    1  UNL1        0.0161
      7 C          16.0526   42.2719    7.9264 C.ar    1  UNL1        0.0190
      8 C          16.0473   41.1674    8.7814 C.ar    1  UNL1        0.0850
      9 C          17.2146   39.7147   10.4147 C.2     1  UNL1        0.2732
     10 O          14.8884   39.2673    9.7533 O.3     1  UNL1       -0.4618
     11 O          18.2484   39.4757   11.0953 O.2     1  UNL1       -0.2704
     12 N          17.2017   40.8501    9.5497 N.am    1  UNL1       -0.2783
     13 H          18.0014   41.4206    9.4841 H       1  UNL1        0.1551
     14 C          11.2992   41.4161    6.6649 C.2     1  UNL1        0.2375
     15 O          11.1248   40.4784    7.4873 O.2     1  UNL1       -0.2738
     16 N          12.5636   42.0818    6.5508 N.am    1  UNL1       -0.2831
     17 H          12.6198   42.8127    5.8937 H       1  UNL1        0.1549
     18 C          10.1619   41.8659    5.8200 C.3     1  UNL1        0.1472
     19 S           8.6762   40.9041    6.2297 S.3     1  UNL1       -0.1039
     20 C           7.8943   42.2977    7.0300 C.ar    1  UNL1        0.0257
     21 C           8.3496   42.7335    8.2790 C.ar    1  UNL1        0.0062
     22 C           7.7421   43.8282    8.9018 C.ar    1  UNL1        0.0005
     23 C           6.6812   44.4892    8.2749 C.ar    1  UNL1        0.0000
     24 C           6.2281   44.0565    7.0248 C.ar    1  UNL1        0.0005
     25 C           6.8352   42.9618    6.4017 C.ar    1  UNL1        0.0062
     26 C          16.4049   37.4328    9.9786 C.2     1  UNL1        0.3623
     27 O          17.0207   36.6165   10.7200 O.2     1  UNL1       -0.2457
     28 O          16.1339   37.1071    8.6473 O.3     1  UNL1       -0.4458
     29 C          15.8748   34.8803    7.8006 C.3     1  UNL1        0.0513
     30 C          15.1702   36.1262    8.2948 C.3     1  UNL1        0.2087
@<TRIPOS>BOND
     1    29    30    1
     2    30    28    1
     3    26    28    1
     4     1    26    1
     5     1     2    1
     6     1    10    1
     7     1     9    1
     8     3    10    1
     9     4     5   ar
    10     5    16    1
    11    18    14    1
    12    18    19    1
    13    20    19    1
    14    21    22   ar
    15    23    24   ar
    16    25    20   ar
    17     6     7   ar
    18     8    12    1
    19     8     3   ar
    20    16    14   am
    21    12     9   am
    22    26    27    2
    23     3     4   ar
    24     5     6   ar
    25    14    15    2
    26    20    21   ar
    27    22    23   ar
    28    24    25   ar
    29     7     8   ar
    30     9    11    2
    31    16    17    1
    32    12    13    1
@<TRIPOS>MOLECULE
MolPort-035-706-972 CSSS03437789227 MCULE-3011014739 PubChem-91938297
 30 32 0 0 0
SMALL
GASTEIGER

@<TRIPOS>ATOM
      1 C          14.2185   39.0818    9.5450 C.3     1  UNL1        0.2880
      2 C          14.3298   37.7194    8.8752 C.3     1  UNL1        0.0650
      3 C          12.0504   40.3568    9.6144 C.ar    1  UNL1        0.1542
      4 C          11.0855   41.0803    8.9072 C.ar    1  UNL1        0.0529
      5 C          10.0069   41.6688    9.5771 C.ar    1  UNL1        0.0534
      6 C           9.9013   41.5235   10.9692 C.ar    1  UNL1        0.0161
      7 C          10.8622   40.7984   11.6790 C.ar    1  UNL1        0.0190
      8 C          11.9357   40.2166   11.0008 C.ar    1  UNL1        0.0850
      9 C          14.0226   38.8808   11.0346 C.2     1  UNL1        0.2732
     10 O          13.1217   39.7751    8.9282 O.3     1  UNL1       -0.4618
     11 O          14.8574   38.2062   11.6958 O.2     1  UNL1       -0.2704
     12 N          12.9120   39.4665   11.7136 N.am    1  UNL1       -0.2783
     13 H          12.8205   39.3500   12.6869 H       1  UNL1        0.1551
     14 C           8.4704   43.6756    9.1513 C.2     1  UNL1        0.2375
     15 O           8.8060   44.2866   10.2002 O.2     1  UNL1       -0.2738
     16 N           9.0404   42.4042    8.8147 N.am    1  UNL1       -0.2831
     17 H           8.7370   41.9934    7.9730 H       1  UNL1        0.1549
     18 C           7.4900   44.3010    8.2252 C.3     1  UNL1        0.1472
     19 S           6.7410   43.0241    7.1723 S.3     1  UNL1       -0.1039
     20 C           5.5557   42.5663    8.4291 C.ar    1  UNL1        0.0257
     21 C           5.6412   41.3153    9.0494 C.ar    1  UNL1        0.0062
     22 C           4.7179   40.9600   10.0376 C.ar    1  UNL1        0.0005
     23 C           3.7104   41.8564   10.4078 C.ar    1  UNL1        0.0000
     24 C           3.6266   43.1085    9.7909 C.ar    1  UNL1        0.0005
     25 C           4.5498   43.4641    8.8027 C.ar    1  UNL1        0.0062
     26 C          15.4787   39.8715    9.3168 C.2     1  UNL1        0.3623
     27 O          15.4164   41.0960    9.0139 O.2     1  UNL1       -0.2457
     28 O          16.7157   39.2251    9.3810 O.3     1  UNL1       -0.4458
     29 C          18.9860   38.8265   10.0367 C.3     1  UNL1        0.0513
     30 C          17.7239   39.6215   10.2984 C.3     1  UNL1        0.2087
@<TRIPOS>BOND
     1    29    30    1
     2    30    28    1
     3    26    28    1
     4     1    26    1
     5     1     2    1
     6     1    10    1
     7     1     9    1
     8     3    10    1
     9     4     5   ar
    10     5    16    1
    11    18    14    1
    12    18    19    1
    13    20    19    1
    14    21    22   ar
    15    23    24   ar
    16    25    20   ar
    17     6     7   ar
    18     8    12    1
    19     8     3   ar
    20    16    14   am
    21    12     9   am
    22    26    27    2
    23     3     4   ar
    24     5     6   ar
    25    14    15    2
    26    20    21   ar
    27    22    23   ar
    28    24    25   ar
    29     7     8   ar
    30     9    11    2
    31    16    17    1
    32    12    13    1
@<TRIPOS>MOLECULE
MolPort-035-706-972 CSSS03437789227 MCULE-3011014739 PubChem-91938297
 30 32 0 0 0
SMALL
GASTEIGER

@<TRIPOS>ATOM
      1 C          15.8447   38.6276   10.4259 C.3     1  UNL1        0.2880
      2 C          15.4293   38.4690   11.8817 C.3     1  UNL1        0.0650
      3 C          14.6584   40.2083    8.8687 C.ar    1  UNL1        0.1542
      4 C          13.4990   40.5003    8.1442 C.ar    1  UNL1        0.0529
      5 C          13.4466   41.6228    7.3101 C.ar    1  UNL1        0.0534
      6 C          14.5715   42.4564    7.2092 C.ar    1  UNL1        0.0161
      7 C          15.7311   42.1694    7.9343 C.ar    1  UNL1        0.0190
      8 C          15.7733   41.0454    8.7626 C.ar    1  UNL1        0.0850
      9 C          17.0069   39.5978   10.3510 C.2     1  UNL1        0.2732
     10 O          14.6926   39.0820    9.6978 O.3     1  UNL1       -0.4618
     11 O          18.0547   39.3805   11.0173 O.2     1  UNL1       -0.2704
     12 N          16.9453   40.7523    9.5137 N.am    1  UNL1       -0.2783
     13 H          17.7232   41.3528    9.4553 H       1  UNL1        0.1551
     14 C          10.8980   41.7552    7.0721 C.2     1  UNL1        0.2375
     15 O          10.6651   41.3907    8.2549 O.2     1  UNL1       -0.2738
     16 N          12.2391   41.8854    6.5828 N.am    1  UNL1       -0.2831
     17 H          12.3416   42.1861    5.6510 H       1  UNL1        0.1549
     18 C           9.7611   42.0917    6.1756 C.3     1  UNL1        0.1472
     19 S           8.5029   40.7843    6.2642 S.3     1  UNL1       -0.1039
     20 C           9.3527   39.7711    5.0618 C.ar    1  UNL1        0.0257
     21 C           8.6385   39.1819    4.0130 C.ar    1  UNL1        0.0062
     22 C           9.3047   38.3949    3.0685 C.ar    1  UNL1        0.0005
     23 C          10.6855   38.1990    3.1707 C.ar    1  UNL1        0.0000
     24 C          11.4006   38.7907    4.2166 C.ar    1  UNL1        0.0005
     25 C          10.7348   39.5777    5.1613 C.ar    1  UNL1        0.0062
     26 C          16.2764   37.2990    9.8667 C.2     1  UNL1        0.3623
     27 O          17.2499   37.2320    9.0649 O.2     1  UNL1       -0.2457
     28 O          15.5530   36.1489   10.1922 O.3     1  UNL1       -0.4458
     29 C          13.2475   35.7880    9.6469 C.3     1  UNL1        0.0513
     30 C          14.6868   35.5176    9.2614 C.3     1  UNL1        0.2087
@<TRIPOS>BOND
     1    29    30    1
     2    30    28    1
     3    26    28    1
     4     1    26    1
     5     1     2    1
     6     1    10    1
     7     1     9    1
     8     3    10    1
     9     4     5   ar
    10     5    16    1
    11    18    14    1
    12    18    19    1
    13    20    19    1
    14    21    22   ar
    15    23    24   ar
    16    25    20   ar
    17     6     7   ar
    18     8    12    1
    19     8     3   ar
    20    16    14   am
    21    12     9   am
    22    26    27    2
    23     3     4   ar
    24     5     6   ar
    25    14    15    2
    26    20    21   ar
    27    22    23   ar
    28    24    25   ar
    29     7     8   ar
    30     9    11    2
    31    16    17    1
    32    12    13    1
@<TRIPOS>MOLECULE
MolPort-035-706-972 CSSS03437789227 MCULE-3011014739 PubChem-91938297
 30 32 0 0 0
SMALL
GASTEIGER

@<TRIPOS>ATOM
      1 C          15.1559   38.7486   10.3481 C.3     1  UNL1        0.2880
      2 C          14.8360   38.7090   11.8358 C.3     1  UNL1        0.0650
      3 C          13.9388   40.2805    8.7660 C.ar    1  UNL1        0.1542
      4 C          12.7466   40.5825    8.1013 C.ar    1  UNL1        0.0529
      5 C          12.6886   41.6479    7.1959 C.ar    1  UNL1        0.0534
      6 C          13.8412   42.4142    6.9624 C.ar    1  UNL1        0.0161
      7 C          15.0340   42.1172    7.6274 C.ar    1  UNL1        0.0190
      8 C          15.0814   41.0504    8.5277 C.ar    1  UNL1        0.0850
      9 C          16.3540   39.6508   10.1284 C.2     1  UNL1        0.2732
     10 O          13.9783   39.2118    9.6680 O.3     1  UNL1       -0.4618
     11 O          17.4344   39.4250   10.7373 O.2     1  UNL1       -0.2704
     12 N          16.2879   40.7484    9.2182 N.am    1  UNL1       -0.2783
     13 H          17.0870   41.3031    9.0664 H       1  UNL1        0.1551
     14 C          10.1774   41.3148    6.8052 C.2     1  UNL1        0.2375
     15 O          10.0462   40.4494    7.7107 O.2     1  UNL1       -0.2738
     16 N          11.4468   41.9229    6.5337 N.am    1  UNL1       -0.2831
     17 H          11.4682   42.5992    5.8186 H       1  UNL1        0.1549
     18 C           8.9855   41.7408    6.0257 C.3     1  UNL1        0.1472
     19 S           7.5914   40.6321    6.3826 S.3     1  UNL1       -0.1039
     20 C           6.6945   41.9069    7.2569 C.ar    1  UNL1        0.0257
     21 C           6.7082   43.2231    6.7828 C.ar    1  UNL1        0.0062
     22 C           6.0007   44.2190    7.4632 C.ar    1  UNL1        0.0005
     23 C           5.2771   43.8988    8.6162 C.ar    1  UNL1        0.0000
     24 C           5.2599   42.5827    9.0886 C.ar    1  UNL1        0.0005
     25 C           5.9672   41.5866    8.4084 C.ar    1  UNL1        0.0062
     26 C          15.4852   37.3653    9.8561 C.2     1  UNL1        0.3623
     27 O          16.2875   37.2063    8.8937 O.2     1  UNL1       -0.2457
     28 O          14.8488   36.2621   10.4305 O.3     1  UNL1       -0.4458
     29 C          12.4757   35.9339   10.3699 C.3     1  UNL1        0.0513
     30 C          13.8115   35.5607    9.7619 C.3     1  UNL1        0.2087
@<TRIPOS>BOND
     1    29    30    1
     2    30    28    1
     3    26    28    1
     4     1    26    1
     5     1     2    1
     6     1    10    1
     7     1     9    1
     8     3    10    1
     9     4     5   ar
    10     5    16    1
    11    18    14    1
    12    18    19    1
    13    20    19    1
    14    21    22   ar
    15    23    24   ar
    16    25    20   ar
    17     6     7   ar
    18     8    12    1
    19     8     3   ar
    20    16    14   am
    21    12     9   am
    22    26    27    2
    23     3     4   ar
    24     5     6   ar
    25    14    15    2
    26    20    21   ar
    27    22    23   ar
    28    24    25   ar
    29     7     8   ar
    30     9    11    2
    31    16    17    1
    32    12    13    1
@<TRIPOS>MOLECULE
MolPort-035-706-972 CSSS03437789227 MCULE-3011014739 PubChem-91938297
 30 32 0 0 0
SMALL
GASTEIGER

@<TRIPOS>ATOM
      1 C          14.8180   38.7391   10.2932 C.3     1  UNL1        0.2880
      2 C          14.7645   38.7293   11.8144 C.3     1  UNL1        0.0650
      3 C          13.3279   40.2302    8.9194 C.ar    1  UNL1        0.1542
      4 C          12.0348   40.5114    8.4686 C.ar    1  UNL1        0.0529
      5 C          11.8089   41.5571    7.5665 C.ar    1  UNL1        0.0534
      6 C          12.8955   42.3247    7.1189 C.ar    1  UNL1        0.0161
      7 C          14.1892   42.0486    7.5697 C.ar    1  UNL1        0.0190
      8 C          14.4037   41.0014    8.4688 C.ar    1  UNL1        0.0850
      9 C          15.9504   39.6432    9.8485 C.2     1  UNL1        0.2732
     10 O          13.5350   39.1812    9.8214 O.3     1  UNL1       -0.4618
     11 O          17.1230   39.4365   10.2625 O.2     1  UNL1       -0.2704
     12 N          15.7155   40.7209    8.9423 N.am    1  UNL1       -0.2783
     13 H          16.4704   41.2766    8.6415 H       1  UNL1        0.1551
     14 C           9.2805   41.7697    7.9298 C.2     1  UNL1        0.2375
     15 O           9.3306   41.5040    9.1598 O.2     1  UNL1       -0.2738
     16 N          10.4676   41.8109    7.1274 N.am    1  UNL1       -0.2831
     17 H          10.3499   42.0369    6.1764 H       1  UNL1        0.1549
     18 C           7.9688   42.0819    7.3041 C.3     1  UNL1        0.1472
     19 S           7.3698   43.6881    7.9053 S.3     1  UNL1       -0.1039
     20 C           5.8402   42.9856    8.5062 C.ar    1  UNL1        0.0257
     21 C           4.6936   43.7816    8.6001 C.ar    1  UNL1        0.0062
     22 C           3.4952   43.2299    9.0637 C.ar    1  UNL1        0.0005
     23 C           3.4422   41.8816    9.4309 C.ar    1  UNL1        0.0000
     24 C           4.5869   41.0844    9.3337 C.ar    1  UNL1        0.0005
     25 C           5.7854   41.6357    8.8702 C.ar    1  UNL1        0.0062
     26 C          15.0685   37.3476    9.7785 C.2     1  UNL1        0.3623
     27 O          15.6973   37.1725    8.6972 O.2     1  UNL1       -0.2457
     28 O          14.5462   36.2537   10.4732 O.3     1  UNL1       -0.4458
     29 C          12.1717   35.9753   10.6386 C.3     1  UNL1        0.0513
     30 C          13.4489   35.5024    9.9765 C.3     1  UNL1        0.2087
@<TRIPOS>BOND
     1    29    30    1
     2    30    28    1
     3    26    28    1
     4     1    26    1
     5     1     2    1
     6     1    10    1
     7     1     9    1
     8     3    10    1
     9     4     5   ar
    10     5    16    1
    11    18    14    1
    12    18    19    1
    13    20    19    1
    14    21    22   ar
    15    23    24   ar
    16    25    20   ar
    17     6     7   ar
    18     8    12    1
    19     8     3   ar
    20    16    14   am
    21    12     9   am
    22    26    27    2
    23     3     4   ar
    24     5     6   ar
    25    14    15    2
    26    20    21   ar
    27    22    23   ar
    28    24    25   ar
    29     7     8   ar
    30     9    11    2
    31    16    17    1
    32    12    13    1
@<TRIPOS>MOLECULE
MolPort-035-706-972 CSSS03437789227 MCULE-3011014739 PubChem-91938297
 30 32 0 0 0
SMALL
GASTEIGER

@<TRIPOS>ATOM
      1 C           9.4019   40.3877    7.3204 C.3     1  UNL1        0.2880
      2 C           8.8733   39.0635    6.7872 C.3     1  UNL1        0.0650
      3 C          11.8650   40.8239    7.5928 C.ar    1  UNL1        0.1542
      4 C          13.0418   40.5403    8.2921 C.ar    1  UNL1        0.0529
      5 C          14.2269   41.2222    7.9940 C.ar    1  UNL1        0.0534
      6 C          14.2236   42.1948    6.9819 C.ar    1  UNL1        0.0161
      7 C          13.0499   42.4788    6.2786 C.ar    1  UNL1        0.0190
      8 C          11.8720   41.7935    6.5853 C.ar    1  UNL1        0.0850
      9 C           9.4614   41.3859    6.1812 C.2     1  UNL1        0.2732
     10 O          10.6896   40.1321    7.9041 O.3     1  UNL1       -0.4618
     11 O           8.4252   41.6401    5.5099 O.2     1  UNL1       -0.2704
     12 N          10.6755   42.0674    5.8664 N.am    1  UNL1       -0.2783
     13 H          10.6848   42.7352    5.1430 H       1  UNL1        0.1551
     14 C          15.6008   39.7795    9.6067 C.2     1  UNL1        0.2375
     15 O          14.6895   38.9289    9.7858 O.2     1  UNL1       -0.2738
     16 N          15.4114   40.9026    8.7364 N.am    1  UNL1       -0.2831
     17 H          16.1734   41.5183    8.6381 H       1  UNL1        0.1549
     18 C          16.9118   39.5968   10.2831 C.3     1  UNL1        0.1472
     19 S          16.9164   38.0268   11.1971 S.3     1  UNL1       -0.1039
     20 C          17.6867   37.1473    9.8454 C.ar    1  UNL1        0.0257
     21 C          19.0485   37.3263    9.5794 C.ar    1  UNL1        0.0062
     22 C          19.6525   36.6327    8.5261 C.ar    1  UNL1        0.0005
     23 C          18.8958   35.7579    7.7402 C.ar    1  UNL1        0.0000
     24 C          17.5355   35.5756    8.0078 C.ar    1  UNL1        0.0005
     25 C          16.9312   36.2690    9.0610 C.ar    1  UNL1        0.0062
     26 C           8.4834   40.9152    8.3891 C.2     1  UNL1        0.3623
     27 O           7.2324   40.7835    8.2749 O.2     1  UNL1       -0.2457
     28 O           9.0212   41.6068    9.4774 O.3     1  UNL1       -0.4458
     29 C          10.6848   43.2753    9.9147 C.3     1  UNL1        0.0513
     30 C           9.2767   43.0023    9.4289 C.3     1  UNL1        0.2087
@<TRIPOS>BOND
     1    29    30    1
     2    30    28    1
     3    26    28    1
     4     1    26    1
     5     1     2    1
     6     1    10    1
     7     1     9    1
     8     3    10    1
     9     4     5   ar
    10     5    16    1
    11    18    14    1
    12    18    19    1
    13    20    19    1
    14    21    22   ar
    15    23    24   ar
    16    25    20   ar
    17     6     7   ar
    18     8    12    1
    19     8     3   ar
    20    16    14   am
    21    12     9   am
    22    26    27    2
    23     3     4   ar
    24     5     6   ar
    25    14    15    2
    26    20    21   ar
    27    22    23   ar
    28    24    25   ar
    29     7     8   ar
    30     9    11    2
    31    16    17    1
    32    12    13    1
@<TRIPOS>MOLECULE
MolPort-035-706-972 CSSS03437789227 MCULE-3011014739 PubChem-91938297
 30 32 0 0 0
SMALL
GASTEIGER

@<TRIPOS>ATOM
      1 C          16.0948   38.7694   10.0461 C.3     1  UNL1        0.2880
      2 C          16.6305   37.3829    9.7179 C.3     1  UNL1        0.0650
      3 C          13.7816   39.4953    9.3731 C.ar    1  UNL1        0.1542
      4 C          12.9128   39.8515    8.3373 C.ar    1  UNL1        0.0529
      5 C          11.6069   40.2690    8.6178 C.ar    1  UNL1        0.0534
      6 C          11.1755   40.3248    9.9523 C.ar    1  UNL1        0.0161
      7 C          12.0401   39.9666   10.9901 C.ar    1  UNL1        0.0190
      8 C          13.3421   39.5529   10.6992 C.ar    1  UNL1        0.0850
      9 C          15.5634   38.7660   11.4656 C.2     1  UNL1        0.2732
     10 O          15.0835   39.0800    9.0740 O.3     1  UNL1       -0.4618
     11 O          16.3115   38.4189   12.4190 O.2     1  UNL1       -0.2704
     12 N          14.2252   39.1748   11.7484 N.am    1  UNL1       -0.2783
     13 H          13.9097   39.1953   12.6807 H       1  UNL1        0.1551
     14 C           9.8448   41.7391    7.4760 C.2     1  UNL1        0.2375
     15 O           9.7397   42.5419    8.4406 O.2     1  UNL1       -0.2738
     16 N          10.7485   40.6275    7.5265 N.am    1  UNL1       -0.2831
     17 H          10.7835   40.0506    6.7295 H       1  UNL1        0.1549
     18 C           9.0422   41.9683    6.2459 C.3     1  UNL1        0.1472
     19 S           7.5935   40.8722    6.2464 S.3     1  UNL1       -0.1039
     20 C           6.6150   42.0298    7.1932 C.ar    1  UNL1        0.0257
     21 C           5.9743   41.6112    8.3643 C.ar    1  UNL1        0.0062
     22 C           5.2144   42.5189    9.1086 C.ar    1  UNL1        0.0005
     23 C           5.0972   43.8461    8.6838 C.ar    1  UNL1        0.0000
     24 C           5.7404   44.2661    7.5154 C.ar    1  UNL1        0.0005
     25 C           6.5003   43.3587    6.7708 C.ar    1  UNL1        0.0062
     26 C          17.1985   39.7862    9.9366 C.2     1  UNL1        0.3623
     27 O          18.3872   39.4684   10.2217 O.2     1  UNL1       -0.2457
     28 O          16.8888   41.1004    9.5776 O.3     1  UNL1       -0.4458
     29 C          16.7666   42.9582    8.0687 C.3     1  UNL1        0.0513
     30 C          17.5932   41.7853    8.5529 C.3     1  UNL1        0.2087
@<TRIPOS>BOND
     1    29    30    1
     2    30    28    1
     3    26    28    1
     4     1    26    1
     5     1     2    1
     6     1    10    1
     7     1     9    1
     8     3    10    1
     9     4     5   ar
    10     5    16    1
    11    18    14    1
    12    18    19    1
    13    20    19    1
    14    21    22   ar
    15    23    24   ar
    16    25    20   ar
    17     6     7   ar
    18     8    12    1
    19     8     3   ar
    20    16    14   am
    21    12     9   am
    22    26    27    2
    23     3     4   ar
    24     5     6   ar
    25    14    15    2
    26    20    21   ar
    27    22    23   ar
    28    24    25   ar
    29     7     8   ar
    30     9    11    2
    31    16    17    1
    32    12    13    1
@<TRIPOS>MOLECULE
MolPort-035-706-972 CSSS03437789227 MCULE-3011014739 PubChem-91938297
 30 32 0 0 0
SMALL
GASTEIGER

@<TRIPOS>ATOM
      1 C          13.8136   36.9017    9.9703 C.3     1  UNL1        0.2880
      2 C          13.5315   35.4264   10.2171 C.3     1  UNL1        0.0650
      3 C          11.9704   38.6124    9.8855 C.ar    1  UNL1        0.1542
      4 C          10.8707   39.1265    9.1922 C.ar    1  UNL1        0.0529
      5 C          10.2020   40.2621    9.6631 C.ar    1  UNL1        0.0534
      6 C          10.6455   40.8805   10.8425 C.ar    1  UNL1        0.0161
      7 C          11.7425   40.3675   11.5400 C.ar    1  UNL1        0.0190
      8 C          12.4039   39.2347   11.0603 C.ar    1  UNL1        0.0850
      9 C          14.2086   37.5510   11.2818 C.2     1  UNL1        0.2732
     10 O          12.6266   37.4762    9.4002 O.3     1  UNL1       -0.4618
     11 O          15.1754   37.0918   11.9477 O.2     1  UNL1       -0.2704
     12 N          13.5140   38.6985   11.7701 N.am    1  UNL1       -0.2783
     13 H          13.8066   39.1239   12.6083 H       1  UNL1        0.1551
     14 C           9.1236   41.5933    7.7566 C.2     1  UNL1        0.2375
     15 O          10.2188   41.9662    7.2590 O.2     1  UNL1       -0.2738
     16 N           9.0798   40.7584    8.9210 N.am    1  UNL1       -0.2831
     17 H           8.1870   40.4988    9.2447 H       1  UNL1        0.1549
     18 C           7.8509   41.9974    7.1034 C.3     1  UNL1        0.1472
     19 S           7.3410   43.6311    7.7128 S.3     1  UNL1       -0.1039
     20 C           5.8015   42.9989    8.3642 C.ar    1  UNL1        0.0257
     21 C           5.6878   41.6464    8.7034 C.ar    1  UNL1        0.0062
     22 C           4.4854   41.1534    9.2196 C.ar    1  UNL1        0.0005
     23 C           3.3971   42.0131    9.3994 C.ar    1  UNL1        0.0000
     24 C           3.5113   43.3659    9.0642 C.ar    1  UNL1        0.0005
     25 C           4.7135   43.8591    8.5480 C.ar    1  UNL1        0.0062
     26 C          14.9429   37.0519    8.9874 C.2     1  UNL1        0.3623
     27 O          15.1533   36.1597    8.1185 O.2     1  UNL1       -0.2457
     28 O          15.7951   38.1548    9.0833 O.3     1  UNL1       -0.4458
     29 C          16.2697   40.4257    9.6838 C.3     1  UNL1        0.0513
     30 C          15.3154   39.4866    8.9762 C.3     1  UNL1        0.2087
@<TRIPOS>BOND
     1    29    30    1
     2    30    28    1
     3    26    28    1
     4     1    26    1
     5     1     2    1
     6     1    10    1
     7     1     9    1
     8     3    10    1
     9     4     5   ar
    10     5    16    1
    11    18    14    1
    12    18    19    1
    13    20    19    1
    14    21    22   ar
    15    23    24   ar
    16    25    20   ar
    17     6     7   ar
    18     8    12    1
    19     8     3   ar
    20    16    14   am
    21    12     9   am
    22    26    27    2
    23     3     4   ar
    24     5     6   ar
    25    14    15    2
    26    20    21   ar
    27    22    23   ar
    28    24    25   ar
    29     7     8   ar
    30     9    11    2
    31    16    17    1
    32    12    13    1
@<TRIPOS>MOLECULE
MolPort-035-706-972 CSSS03437789227 MCULE-3011014739 PubChem-91938297
 30 32 0 0 0
SMALL
GASTEIGER

@<TRIPOS>ATOM
      1 C          13.7875   39.5617    9.3474 C.3     1  UNL1        0.2880
      2 C          13.9202   38.2194    8.6419 C.3     1  UNL1        0.0650
      3 C          11.5628   40.7037    9.6261 C.ar    1  UNL1        0.1542
      4 C          10.5007   41.3797    9.0182 C.ar    1  UNL1        0.0529
      5 C           9.4509   41.8919    9.7888 C.ar    1  UNL1        0.0534
      6 C           9.4731   41.7182   11.1815 C.ar    1  UNL1        0.0161
      7 C          10.5316   41.0403   11.7923 C.ar    1  UNL1        0.0190
      8 C          11.5753   40.5346   11.0140 C.ar    1  UNL1        0.0850
      9 C          13.7315   39.3254   10.8436 C.2     1  UNL1        0.2732
     10 O          12.6037   40.1982    8.8399 O.3     1  UNL1       -0.4618
     11 O          14.6574   38.6912   11.4176 O.2     1  UNL1       -0.2704
     12 N          12.6507   39.8327   11.6259 N.am    1  UNL1       -0.2783
     13 H          12.6495   39.6953   12.6008 H       1  UNL1        0.1551
     14 C           8.1023   43.9854    9.1818 C.2     1  UNL1        0.2375
     15 O           8.8274   44.7713    9.8470 O.2     1  UNL1       -0.2738
     16 N           8.3818   42.5805    9.1263 N.am    1  UNL1       -0.2831
     17 H           7.7771   42.0316    8.5764 H       1  UNL1        0.1549
     18 C           6.9546   44.5295    8.4096 C.3     1  UNL1        0.1472
     19 S           6.3275   43.2622    7.2690 S.3     1  UNL1       -0.1039
     20 C           5.1980   42.6058    8.4885 C.ar    1  UNL1        0.0257
     21 C           4.1844   43.4159    9.0116 C.ar    1  UNL1        0.0062
     22 C           3.2965   42.9001    9.9607 C.ar    1  UNL1        0.0005
     23 C           3.4198   41.5733   10.3849 C.ar    1  UNL1        0.0000
     24 C           4.4303   40.7618    9.8597 C.ar    1  UNL1        0.0005
     25 C           5.3184   41.2773    8.9107 C.ar    1  UNL1        0.0062
     26 C          14.9756   40.4287    9.0305 C.2     1  UNL1        0.3623
     27 O          16.1475   39.9813    9.1781 O.2     1  UNL1       -0.2457
     28 O          14.7735   41.7524    8.6319 O.3     1  UNL1       -0.4458
     29 C          13.8437   42.5422    6.5692 C.3     1  UNL1        0.0513
     30 C          15.1094   42.2044    7.3287 C.3     1  UNL1        0.2087
@<TRIPOS>BOND
     1    29    30    1
     2    30    28    1
     3    26    28    1
     4     1    26    1
     5     1     2    1
     6     1    10    1
     7     1     9    1
     8     3    10    1
     9     4     5   ar
    10     5    16    1
    11    18    14    1
    12    18    19    1
    13    20    19    1
    14    21    22   ar
    15    23    24   ar
    16    25    20   ar
    17     6     7   ar
    18     8    12    1
    19     8     3   ar
    20    16    14   am
    21    12     9   am
    22    26    27    2
    23     3     4   ar
    24     5     6   ar
    25    14    15    2
    26    20    21   ar
    27    22    23   ar
    28    24    25   ar
    29     7     8   ar
    30     9    11    2
    31    16    17    1
    32    12    13    1
@<TRIPOS>MOLECULE
MolPort-035-706-972 CSSS03437789227 MCULE-3011014739 PubChem-91938297
 30 32 0 0 0
SMALL
GASTEIGER

@<TRIPOS>ATOM
      1 C           6.4313   42.6662    8.1332 C.3     1  UNL1        0.2880
      2 C           6.0740   42.7725    6.6574 C.3     1  UNL1        0.0650
      3 C           8.8017   42.3291    8.9071 C.ar    1  UNL1        0.1542
      4 C           9.9005   41.4697    8.9988 C.ar    1  UNL1        0.0529
      5 C          11.0588   41.8678    9.6757 C.ar    1  UNL1        0.0534
      6 C          11.1081   43.1425   10.2614 C.ar    1  UNL1        0.0161
      7 C          10.0128   44.0055   10.1691 C.ar    1  UNL1        0.0190
      8 C           8.8608   43.5974    9.4927 C.ar    1  UNL1        0.0850
      9 C           6.5566   44.0628    8.7089 C.2     1  UNL1        0.2732
     10 O           7.6521   41.9144    8.2263 O.3     1  UNL1       -0.4618
     11 O           5.5956   44.8731    8.6143 O.2     1  UNL1       -0.2704
     12 N           7.7456   44.4738    9.3833 N.am    1  UNL1       -0.2783
     13 H           7.7945   45.3746    9.7774 H       1  UNL1        0.1551
     14 C          13.2716   40.8774    8.8436 C.2     1  UNL1        0.2375
     15 O          13.3732   41.6616    7.8633 O.2     1  UNL1       -0.2738
     16 N          12.1626   40.9554    9.7485 N.am    1  UNL1       -0.2831
     17 H          12.1584   40.3164   10.4974 H       1  UNL1        0.1549
     18 C          14.3406   39.8740    9.0884 C.3     1  UNL1        0.1472
     19 S          14.2906   39.3360   10.8228 S.3     1  UNL1       -0.1039
     20 C          13.9323   37.6437   10.3735 C.ar    1  UNL1        0.0257
     21 C          14.8453   36.9156    9.6033 C.ar    1  UNL1        0.0062
     22 C          14.5679   35.5893    9.2577 C.ar    1  UNL1        0.0005
     23 C          13.3787   34.9898    9.6845 C.ar    1  UNL1        0.0000
     24 C          12.4673   35.7158   10.4576 C.ar    1  UNL1        0.0005
     25 C          12.7445   37.0421   10.8033 C.ar    1  UNL1        0.0062
     26 C           5.3501   41.9249    8.8719 C.2     1  UNL1        0.3623
     27 O           4.1349   42.1304    8.5958 O.2     1  UNL1       -0.2457
     28 O           5.6984   41.0546    9.9078 O.3     1  UNL1       -0.4458
     29 C           4.1041   40.2371   11.4994 C.3     1  UNL1        0.0513
     30 C           5.2154   41.2302   11.2311 C.3     1  UNL1        0.2087
@<TRIPOS>BOND
     1    29    30    1
     2    30    28    1
     3    26    28    1
     4     1    26    1
     5     1     2    1
     6     1    10    1
     7     1     9    1
     8     3    10    1
     9     4     5   ar
    10     5    16    1
    11    18    14    1
    12    18    19    1
    13    20    19    1
    14    21    22   ar
    15    23    24   ar
    16    25    20   ar
    17     6     7   ar
    18     8    12    1
    19     8     3   ar
    20    16    14   am
    21    12     9   am
    22    26    27    2
    23     3     4   ar
    24     5     6   ar
    25    14    15    2
    26    20    21   ar
    27    22    23   ar
    28    24    25   ar
    29     7     8   ar
    30     9    11    2
    31    16    17    1
    32    12    13    1
