@<TRIPOS>MOLECULE
MolPort-020-292-476 MCULE-4874534686 PubChem-110264944
 28 30 0 0 0
SMALL
GASTEIGER

@<TRIPOS>ATOM
      1 C          13.5286   40.9234    8.6558 C.ar    1  UNL1        0.0517
      2 C          12.2418   41.4360    8.8361 C.ar    1  UNL1        0.0294
      3 C          11.5397   41.1507   10.0099 C.ar    1  UNL1        0.0609
      4 C          13.3629   39.8620   10.8216 C.ar    1  UNL1        0.0602
      5 C          14.0925   40.1280    9.6617 C.ar    1  UNL1        0.0294
      6 C          13.9537   39.0186   11.8929 C.3     1  UNL1        0.0521
      7 N          12.1122   40.3733   10.9714 N.ar    1  UNL1       -0.2539
      8 C          10.1637   41.6985   10.1928 C.3     1  UNL1        0.0581
      9 C           9.7499   41.6419   11.6556 C.3     1  UNL1        0.0089
     10 C           8.3527   42.2196   11.8008 C.3     1  UNL1        0.0196
     11 C           7.3728   41.4417   10.9200 C.3     1  UNL1        0.0969
     12 C           9.1591   40.9293    9.3301 C.3     1  UNL1        0.1027
     13 N           7.7792   41.4050    9.5065 N.3     1  UNL1       -0.1450
     14 S           7.5425   42.9507    8.7346 S.O2    1  UNL1        0.1021
     15 O           6.1940   43.4945    9.1220 O.2     1  UNL1       -0.1408
     16 O           8.6049   43.9232    9.1693 O.2     1  UNL1       -0.1408
     17 C           7.0231   41.4684    6.6886 C.3     1  UNL1        0.1161
     18 C           6.7870   43.7717    6.4068 C.3     1  UNL1        0.1161
     19 N           7.6246   42.7505    7.0123 N.3     1  UNL1       -0.1424
     20 N          14.2288   41.2308    7.4422 N.pl3   1  UNL1       -0.2981
     21 H          14.4009   40.4748    6.8355 H       1  UNL1        0.1536
     22 C          16.8017   42.1717    8.3801 C.3     1  UNL1        0.0340
     23 C          15.9549   42.9807    7.4584 C.ar    1  UNL1        0.0099
     24 C          14.7079   42.5144    7.0095 C.ar    1  UNL1        0.1281
     25 C          14.4002   44.5085    5.7429 C.ar    1  UNL1        0.1003
     26 C          15.6336   45.0010    6.1699 C.ar    1  UNL1        0.0204
     27 C          16.4118   44.2292    7.0323 C.ar    1  UNL1        0.0001
     28 N          13.9690   43.2904    6.1667 N.ar    1  UNL1       -0.2294
@<TRIPOS>BOND
     1    22    23    1
     2    24    28   ar
     3    24    20    1
     4    25    26   ar
     5    27    23   ar
     6     2     3   ar
     7     4     7   ar
     8     5     1   ar
     9     6     4    1
    10     8     3    1
    11     8     9    1
    12     9    10    1
    13    10    11    1
    14    11    13    1
    15    12    13    1
    16    12     8    1
    17    17    19    1
    18    18    19    1
    19    20     1    1
    20    14    13    1
    21    14    19    1
    22    23    24   ar
    23    25    28   ar
    24    26    27   ar
    25     1     2   ar
    26     3     7   ar
    27     4     5   ar
    28    14    15    2
    29    14    16    2
    30    20    21    1
@<TRIPOS>MOLECULE
MolPort-020-292-476 MCULE-4874534686 PubChem-110264944
 28 30 0 0 0
SMALL
GASTEIGER

@<TRIPOS>ATOM
      1 C          12.4013   41.4513    7.7005 C.ar    1  UNL1        0.0517
      2 C          11.0479   41.7360    7.5045 C.ar    1  UNL1        0.0294
      3 C          10.1286   41.4695    8.5224 C.ar    1  UNL1        0.0609
      4 C          11.8669   40.6456    9.9164 C.ar    1  UNL1        0.0602
      5 C          12.8121   40.9001    8.9211 C.ar    1  UNL1        0.0294
      6 C          12.2944   40.0604   11.2136 C.3     1  UNL1        0.0521
      7 N          10.5558   40.9321    9.6994 N.ar    1  UNL1       -0.2539
      8 C           8.6839   41.7724    8.3034 C.3     1  UNL1        0.0581
      9 C           8.4327   42.1942    6.8636 C.3     1  UNL1        0.0089
     10 C           6.9523   42.4797    6.6791 C.3     1  UNL1        0.0196
     11 C           6.5051   43.5670    7.6584 C.3     1  UNL1        0.0969
     12 C           8.2120   42.8676    9.2641 C.3     1  UNL1        0.1027
     13 N           6.8024   43.2322    9.0599 N.3     1  UNL1       -0.1450
     14 S           5.7371   41.9879    9.6581 S.O2    1  UNL1        0.1021
     15 O           5.4263   41.0263    8.5431 O.2     1  UNL1       -0.1408
     16 O           6.3897   41.2348   10.7852 O.2     1  UNL1       -0.1408
     17 C           3.2251   42.4247    9.2684 C.3     1  UNL1        0.1161
     18 C           3.8989   42.0478   11.4694 C.3     1  UNL1        0.1161
     19 N           4.2705   42.7162   10.2340 N.3     1  UNL1       -0.1424
     20 N          13.3253   41.7343    6.6404 N.pl3   1  UNL1       -0.2981
     21 H          13.3595   41.0792    5.9063 H       1  UNL1        0.1536
     22 C          15.8170   41.7407    8.1155 C.3     1  UNL1        0.0340
     23 C          15.4182   42.8768    7.2373 C.ar    1  UNL1        0.0099
     24 C          14.2067   42.8632    6.5260 C.ar    1  UNL1        0.1281
     25 C          14.7021   45.0057    5.6099 C.ar    1  UNL1        0.1003
     26 C          15.9122   45.0511    6.3025 C.ar    1  UNL1        0.0204
     27 C          16.2679   43.9782    7.1195 C.ar    1  UNL1        0.0001
     28 N          13.8851   43.9259    5.7349 N.ar    1  UNL1       -0.2294
@<TRIPOS>BOND
     1    22    23    1
     2    24    28   ar
     3    24    20    1
     4    25    26   ar
     5    27    23   ar
     6     2     3   ar
     7     4     7   ar
     8     5     1   ar
     9     6     4    1
    10     8     3    1
    11     8     9    1
    12     9    10    1
    13    10    11    1
    14    11    13    1
    15    12    13    1
    16    12     8    1
    17    17    19    1
    18    18    19    1
    19    20     1    1
    20    14    13    1
    21    14    19    1
    22    23    24   ar
    23    25    28   ar
    24    26    27   ar
    25     1     2   ar
    26     3     7   ar
    27     4     5   ar
    28    14    15    2
    29    14    16    2
    30    20    21    1
@<TRIPOS>MOLECULE
MolPort-020-292-476 MCULE-4874534686 PubChem-110264944
 28 30 0 0 0
SMALL
GASTEIGER

@<TRIPOS>ATOM
      1 C          13.5022   41.2095    8.6278 C.ar    1  UNL1        0.0517
      2 C          12.2088   41.6910    8.8428 C.ar    1  UNL1        0.0294
      3 C          11.4962   41.2840    9.9736 C.ar    1  UNL1        0.0609
      4 C          13.3220   39.9353   10.6744 C.ar    1  UNL1        0.0602
      5 C          14.0621   40.3220    9.5558 C.ar    1  UNL1        0.0294
      6 C          13.9085   38.9937   11.6631 C.3     1  UNL1        0.0521
      7 N          12.0650   40.4190   10.8595 N.ar    1  UNL1       -0.2539
      8 C          10.1133   41.7996   10.1937 C.3     1  UNL1        0.0581
      9 C           9.7012   41.6364   11.6490 C.3     1  UNL1        0.0089
     10 C           8.2966   42.1842   11.8335 C.3     1  UNL1        0.0196
     11 C           7.3265   41.4564   10.9007 C.3     1  UNL1        0.0969
     12 C           9.1183   41.0789    9.2795 C.3     1  UNL1        0.1027
     13 N           7.7323   41.5231    9.4881 N.3     1  UNL1       -0.1450
     14 S           7.4748   43.1153    8.8251 S.O2    1  UNL1        0.1021
     15 O           8.3247   44.1053    9.5748 O.2     1  UNL1       -0.1408
     16 O           7.8564   43.1466    7.3702 O.2     1  UNL1       -0.1408
     17 C           5.4739   44.4598    7.9080 C.3     1  UNL1        0.1161
     18 C           5.0146   42.3365    8.7573 C.3     1  UNL1        0.1161
     19 N           5.7989   43.5386    8.9832 N.3     1  UNL1       -0.1424
     20 N          14.2131   41.6425    7.4595 N.pl3   1  UNL1       -0.2981
     21 H          13.8486   41.3474    6.5939 H       1  UNL1        0.1536
     22 C          14.2361   43.9974    5.7747 C.3     1  UNL1        0.0340
     23 C          15.4177   43.6018    6.5924 C.ar    1  UNL1        0.0099
     24 C          15.3956   42.4570    7.4065 C.ar    1  UNL1        0.1281
     25 C          17.6320   42.8899    8.1035 C.ar    1  UNL1        0.1003
     26 C          17.6872   44.0329    7.3056 C.ar    1  UNL1        0.0204
     27 C          16.5713   44.3868    6.5476 C.ar    1  UNL1        0.0001
     28 N          16.5011   42.1355    8.1365 N.ar    1  UNL1       -0.2294
@<TRIPOS>BOND
     1    22    23    1
     2    24    28   ar
     3    24    20    1
     4    25    26   ar
     5    27    23   ar
     6     2     3   ar
     7     4     7   ar
     8     5     1   ar
     9     6     4    1
    10     8     3    1
    11     8     9    1
    12     9    10    1
    13    10    11    1
    14    11    13    1
    15    12    13    1
    16    12     8    1
    17    17    19    1
    18    18    19    1
    19    20     1    1
    20    14    13    1
    21    14    19    1
    22    23    24   ar
    23    25    28   ar
    24    26    27   ar
    25     1     2   ar
    26     3     7   ar
    27     4     5   ar
    28    14    15    2
    29    14    16    2
    30    20    21    1
@<TRIPOS>MOLECULE
MolPort-020-292-476 MCULE-4874534686 PubChem-110264944
 28 30 0 0 0
SMALL
GASTEIGER

@<TRIPOS>ATOM
      1 C          10.1410   41.3025   10.8740 C.ar    1  UNL1        0.0517
      2 C           8.8400   41.4994   10.4048 C.ar    1  UNL1        0.0294
      3 C           7.7749   41.5347   11.3083 C.ar    1  UNL1        0.0609
      4 C           9.2655   41.1825   13.1242 C.ar    1  UNL1        0.0602
      5 C          10.3526   41.1427   12.2495 C.ar    1  UNL1        0.0294
      6 C           9.4815   41.0131   14.5846 C.3     1  UNL1        0.0521
      7 N           8.0095   41.3754   12.6411 N.ar    1  UNL1       -0.2539
      8 C           6.3876   41.7411   10.7987 C.3     1  UNL1        0.0581
      9 C           5.4096   40.8135   11.5037 C.3     1  UNL1        0.0089
     10 C           4.0107   41.0638   10.9676 C.3     1  UNL1        0.0196
     11 C           3.9856   40.8439    9.4536 C.3     1  UNL1        0.0969
     12 C           6.3312   41.5155    9.2850 C.3     1  UNL1        0.1027
     13 N           4.9743   41.6668    8.7394 N.3     1  UNL1       -0.1450
     14 S           4.4965   43.3433    8.6958 S.O2    1  UNL1        0.1021
     15 O           3.0298   43.4469    9.0160 O.2     1  UNL1       -0.1408
     16 O           5.2751   44.1380    9.7085 O.2     1  UNL1       -0.1408
     17 C           4.3238   45.3577    7.0943 C.3     1  UNL1        0.1161
     18 C           6.2405   44.0395    6.9246 C.3     1  UNL1        0.1161
     19 N           4.8007   43.9857    7.1122 N.3     1  UNL1       -0.1424
     20 N          11.2174   41.2705    9.9264 N.pl3   1  UNL1       -0.2981
     21 H          11.0579   41.7304    9.0707 H       1  UNL1        0.1536
     22 C          13.2428   41.6716    7.8962 C.3     1  UNL1        0.0340
     23 C          13.4916   40.8328    9.1027 C.ar    1  UNL1        0.0099
     24 C          12.5015   40.6448   10.0817 C.ar    1  UNL1        0.1281
     25 C          13.9830   39.2659   11.3381 C.ar    1  UNL1        0.1003
     26 C          14.9879   39.4319   10.3849 C.ar    1  UNL1        0.0204
     27 C          14.7361   40.2207    9.2626 C.ar    1  UNL1        0.0001
     28 N          12.7759   39.8686   11.1682 N.ar    1  UNL1       -0.2294
@<TRIPOS>BOND
     1    22    23    1
     2    24    28   ar
     3    24    20    1
     4    25    26   ar
     5    27    23   ar
     6     2     3   ar
     7     4     7   ar
     8     5     1   ar
     9     6     4    1
    10     8     3    1
    11     8     9    1
    12     9    10    1
    13    10    11    1
    14    11    13    1
    15    12    13    1
    16    12     8    1
    17    17    19    1
    18    18    19    1
    19    20     1    1
    20    14    13    1
    21    14    19    1
    22    23    24   ar
    23    25    28   ar
    24    26    27   ar
    25     1     2   ar
    26     3     7   ar
    27     4     5   ar
    28    14    15    2
    29    14    16    2
    30    20    21    1
@<TRIPOS>MOLECULE
MolPort-020-292-476 MCULE-4874534686 PubChem-110264944
 28 30 0 0 0
SMALL
GASTEIGER

@<TRIPOS>ATOM
      1 C          14.5085   40.9947    8.9079 C.ar    1  UNL1        0.0517
      2 C          13.2167   41.4431    8.6224 C.ar    1  UNL1        0.0294
      3 C          12.1382   40.9789    9.3798 C.ar    1  UNL1        0.0609
      4 C          13.5977   39.6384   10.6899 C.ar    1  UNL1        0.0602
      5 C          14.6976   40.0823    9.9539 C.ar    1  UNL1        0.0294
      6 C          13.7899   38.6702   11.8006 C.3     1  UNL1        0.0521
      7 N          12.3511   40.0907   10.3910 N.ar    1  UNL1       -0.2539
      8 C          10.7608   41.4594    9.0656 C.3     1  UNL1        0.0581
      9 C          10.1579   42.1877   10.2573 C.3     1  UNL1        0.0089
     10 C           8.7650   42.6714    9.8930 C.3     1  UNL1        0.0196
     11 C           7.8943   41.4852    9.4734 C.3     1  UNL1        0.0969
     12 C           9.8635   40.2890    8.6532 C.3     1  UNL1        0.1027
     13 N           8.4816   40.7055    8.3726 N.3     1  UNL1       -0.1450
     14 S           8.3777   41.5626    6.8576 S.O2    1  UNL1        0.1021
     15 O           7.5326   42.7937    7.0441 O.2     1  UNL1       -0.1408
     16 O           9.7475   41.9760    6.3928 O.2     1  UNL1       -0.1408
     17 C           8.6599   39.5570    5.2606 C.3     1  UNL1        0.1161
     18 C           6.5866   39.7881    6.3038 C.3     1  UNL1        0.1161
     19 N           7.6585   40.5298    5.6621 N.3     1  UNL1       -0.1424
     20 N          15.5989   41.4862    8.1161 N.pl3   1  UNL1       -0.2981
     21 H          16.4400   40.9774    8.1699 H       1  UNL1        0.1536
     22 C          17.7301   43.4307    8.3644 C.3     1  UNL1        0.0340
     23 C          16.6350   43.5850    7.3654 C.ar    1  UNL1        0.0099
     24 C          15.6057   42.6353    7.2535 C.ar    1  UNL1        0.1281
     25 C          14.6094   43.8985    5.4966 C.ar    1  UNL1        0.1003
     26 C          15.6165   44.8601    5.5816 C.ar    1  UNL1        0.0204
     27 C          16.6328   44.6981    6.5228 C.ar    1  UNL1        0.0001
     28 N          14.6254   42.8197    6.3243 N.ar    1  UNL1       -0.2294
@<TRIPOS>BOND
     1    22    23    1
     2    24    28   ar
     3    24    20    1
     4    25    26   ar
     5    27    23   ar
     6     2     3   ar
     7     4     7   ar
     8     5     1   ar
     9     6     4    1
    10     8     3    1
    11     8     9    1
    12     9    10    1
    13    10    11    1
    14    11    13    1
    15    12    13    1
    16    12     8    1
    17    17    19    1
    18    18    19    1
    19    20     1    1
    20    14    13    1
    21    14    19    1
    22    23    24   ar
    23    25    28   ar
    24    26    27   ar
    25     1     2   ar
    26     3     7   ar
    27     4     5   ar
    28    14    15    2
    29    14    16    2
    30    20    21    1
@<TRIPOS>MOLECULE
MolPort-020-292-476 MCULE-4874534686 PubChem-110264944
 28 30 0 0 0
SMALL
GASTEIGER

@<TRIPOS>ATOM
      1 C          14.5802   40.7967    8.8435 C.ar    1  UNL1        0.0517
      2 C          13.2595   40.8448    8.3913 C.ar    1  UNL1        0.0294
      3 C          12.2566   40.1867    9.1078 C.ar    1  UNL1        0.0609
      4 C          13.8485   39.4377   10.7042 C.ar    1  UNL1        0.0602
      5 C          14.8746   40.0844   10.0133 C.ar    1  UNL1        0.0294
      6 C          14.1525   38.6796   11.9455 C.3     1  UNL1        0.0521
      7 N          12.5715   39.5005   10.2420 N.ar    1  UNL1       -0.2539
      8 C          10.8489   40.2393    8.6156 C.3     1  UNL1        0.0581
      9 C          10.4651   38.9334    7.9362 C.3     1  UNL1        0.0089
     10 C           9.0246   39.0226    7.4629 C.3     1  UNL1        0.0196
     11 C           8.8614   40.2087    6.5101 C.3     1  UNL1        0.0969
     12 C          10.6600   41.4122    7.6492 C.3     1  UNL1        0.1027
     13 N           9.2969   41.4829    7.1029 N.3     1  UNL1       -0.1450
     14 S           8.1656   42.0471    8.3039 S.O2    1  UNL1        0.1021
     15 O           7.1092   40.9971    8.5186 O.2     1  UNL1       -0.1408
     16 O           8.8695   42.3059    9.6081 O.2     1  UNL1       -0.1408
     17 C           6.9332   43.2865    6.4071 C.3     1  UNL1        0.1161
     18 C           6.2699   43.7759    8.5891 C.3     1  UNL1        0.1161
     19 N           7.4297   43.5193    7.7524 N.3     1  UNL1       -0.1424
     20 N          15.5915   41.4806    8.0904 N.pl3   1  UNL1       -0.2981
     21 H          16.5033   41.1148    8.1535 H       1  UNL1        0.1536
     22 C          17.5243   43.6306    8.2540 C.3     1  UNL1        0.0340
     23 C          16.3596   43.6869    7.3259 C.ar    1  UNL1        0.0099
     24 C          15.4277   42.6379    7.2547 C.ar    1  UNL1        0.1281
     25 C          14.2012   43.8193    5.5889 C.ar    1  UNL1        0.1003
     26 C          15.1081   44.8783    5.6349 C.ar    1  UNL1        0.0204
     27 C          16.1918   44.8071    6.5099 C.ar    1  UNL1        0.0001
     28 N          14.3782   42.7349    6.3901 N.ar    1  UNL1       -0.2294
@<TRIPOS>BOND
     1    22    23    1
     2    24    28   ar
     3    24    20    1
     4    25    26   ar
     5    27    23   ar
     6     2     3   ar
     7     4     7   ar
     8     5     1   ar
     9     6     4    1
    10     8     3    1
    11     8     9    1
    12     9    10    1
    13    10    11    1
    14    11    13    1
    15    12    13    1
    16    12     8    1
    17    17    19    1
    18    18    19    1
    19    20     1    1
    20    14    13    1
    21    14    19    1
    22    23    24   ar
    23    25    28   ar
    24    26    27   ar
    25     1     2   ar
    26     3     7   ar
    27     4     5   ar
    28    14    15    2
    29    14    16    2
    30    20    21    1
@<TRIPOS>MOLECULE
MolPort-020-292-476 MCULE-4874534686 PubChem-110264944
 28 30 0 0 0
SMALL
GASTEIGER

@<TRIPOS>ATOM
      1 C          12.5699   42.0593    6.4587 C.ar    1  UNL1        0.0517
      2 C          12.7442   41.0674    7.4267 C.ar    1  UNL1        0.0294
      3 C          13.9605   40.9685    8.1071 C.ar    1  UNL1        0.0609
      4 C          14.8272   42.8124    6.8854 C.ar    1  UNL1        0.0602
      5 C          13.6251   42.9400    6.1875 C.ar    1  UNL1        0.0294
      6 C          15.9515   43.7421    6.6031 C.3     1  UNL1        0.0521
      7 N          14.9703   41.8379    7.8225 N.ar    1  UNL1       -0.2539
      8 C          14.1402   39.9033    9.1366 C.3     1  UNL1        0.0581
      9 C          13.2082   40.1306   10.3173 C.3     1  UNL1        0.0089
     10 C          13.4120   39.0205   11.3337 C.3     1  UNL1        0.0196
     11 C          14.8741   38.9874   11.7836 C.3     1  UNL1        0.0969
     12 C          15.5946   39.8559    9.6139 C.3     1  UNL1        0.1027
     13 N          15.8150   38.8479   10.6612 N.3     1  UNL1       -0.1450
     14 S          15.7835   37.2349    9.9994 S.O2    1  UNL1        0.1021
     15 O          14.7119   36.4378   10.6929 O.2     1  UNL1       -0.1408
     16 O          15.4842   37.2775    8.5256 O.2     1  UNL1       -0.1408
     17 C          17.8710   36.1540    8.9381 C.3     1  UNL1        0.1161
     18 C          18.2160   37.4746   10.8295 C.3     1  UNL1        0.1161
     19 N          17.3289   36.4835   10.2449 N.3     1  UNL1       -0.1424
     20 N          11.3119   42.1403    5.7742 N.pl3   1  UNL1       -0.2981
     21 H          11.2437   42.8229    5.0680 H       1  UNL1        0.1536
     22 C          10.7949   39.8688    4.0544 C.3     1  UNL1        0.0340
     23 C           9.8793   40.2360    5.1715 C.ar    1  UNL1        0.0099
     24 C          10.1398   41.3405    5.9999 C.ar    1  UNL1        0.1281
     25 C           8.1571   40.8958    7.2433 C.ar    1  UNL1        0.1003
     26 C           7.8690   39.7928    6.4393 C.ar    1  UNL1        0.0204
     27 C           8.7379   39.4650    5.3988 C.ar    1  UNL1        0.0001
     28 N           9.2729   41.6371    7.0093 N.ar    1  UNL1       -0.2294
@<TRIPOS>BOND
     1    22    23    1
     2    24    28   ar
     3    24    20    1
     4    25    26   ar
     5    27    23   ar
     6     2     3   ar
     7     4     7   ar
     8     5     1   ar
     9     6     4    1
    10     8     3    1
    11     8     9    1
    12     9    10    1
    13    10    11    1
    14    11    13    1
    15    12    13    1
    16    12     8    1
    17    17    19    1
    18    18    19    1
    19    20     1    1
    20    14    13    1
    21    14    19    1
    22    23    24   ar
    23    25    28   ar
    24    26    27   ar
    25     1     2   ar
    26     3     7   ar
    27     4     5   ar
    28    14    15    2
    29    14    16    2
    30    20    21    1
@<TRIPOS>MOLECULE
MolPort-020-292-476 MCULE-4874534686 PubChem-110264944
 28 30 0 0 0
SMALL
GASTEIGER

@<TRIPOS>ATOM
      1 C          12.5560   41.4370    6.9723 C.ar    1  UNL1        0.0517
      2 C          11.5551   41.8743    7.8430 C.ar    1  UNL1        0.0294
      3 C          10.2123   41.7251    7.4869 C.ar    1  UNL1        0.0609
      4 C          10.8399   40.7218    5.4270 C.ar    1  UNL1        0.0602
      5 C          12.1910   40.8547    5.7516 C.ar    1  UNL1        0.0294
      6 C          10.4444   40.1058    4.1339 C.3     1  UNL1        0.0521
      7 N           9.8858   41.1560    6.2927 N.ar    1  UNL1       -0.2539
      8 C           9.1491   42.1989    8.4207 C.3     1  UNL1        0.0581
      9 C           9.7485   43.0320    9.5436 C.3     1  UNL1        0.0089
     10 C           8.6351   43.5051   10.4619 C.3     1  UNL1        0.0196
     11 C           7.8698   42.3016   11.0162 C.3     1  UNL1        0.0969
     12 C           8.3739   41.0122    9.0002 C.3     1  UNL1        0.1027
     13 N           7.3397   41.4250    9.9603 N.3     1  UNL1       -0.1450
     14 S           5.9812   42.1557    9.1471 S.O2    1  UNL1        0.1021
     15 O           5.2880   41.1141    8.3110 O.2     1  UNL1       -0.1408
     16 O           5.0041   42.7079   10.1489 O.2     1  UNL1       -0.1408
     17 C           6.3405   43.0425    6.7518 C.3     1  UNL1        0.1161
     18 C           5.6926   44.5985    8.3641 C.3     1  UNL1        0.1161
     19 N           6.5460   43.4458    8.1322 N.3     1  UNL1       -0.1424
     20 N          13.9271   41.6011    7.3609 N.pl3   1  UNL1       -0.2981
     21 H          14.3019   40.8999    7.9414 H       1  UNL1        0.1536
     22 C          16.5232   41.7722    8.6319 C.3     1  UNL1        0.0340
     23 C          16.0786   42.7630    7.6113 C.ar    1  UNL1        0.0099
     24 C          14.8166   42.6705    7.0008 C.ar    1  UNL1        0.1281
     25 C          15.2779   44.6219    5.7147 C.ar    1  UNL1        0.1003
     26 C          16.5376   44.7428    6.3017 C.ar    1  UNL1        0.0204
     27 C          16.9358   43.8057    7.2548 C.ar    1  UNL1        0.0001
     28 N          14.4543   43.6007    6.0725 N.ar    1  UNL1       -0.2294
@<TRIPOS>BOND
     1    22    23    1
     2    24    28   ar
     3    24    20    1
     4    25    26   ar
     5    27    23   ar
     6     2     3   ar
     7     4     7   ar
     8     5     1   ar
     9     6     4    1
    10     8     3    1
    11     8     9    1
    12     9    10    1
    13    10    11    1
    14    11    13    1
    15    12    13    1
    16    12     8    1
    17    17    19    1
    18    18    19    1
    19    20     1    1
    20    14    13    1
    21    14    19    1
    22    23    24   ar
    23    25    28   ar
    24    26    27   ar
    25     1     2   ar
    26     3     7   ar
    27     4     5   ar
    28    14    15    2
    29    14    16    2
    30    20    21    1
@<TRIPOS>MOLECULE
MolPort-020-292-476 MCULE-4874534686 PubChem-110264944
 28 30 0 0 0
SMALL
GASTEIGER

@<TRIPOS>ATOM
      1 C          13.6379   41.4205    8.2124 C.ar    1  UNL1        0.0517
      2 C          12.3250   41.8960    8.1753 C.ar    1  UNL1        0.0294
      3 C          11.4306   41.5430    9.1890 C.ar    1  UNL1        0.0609
      4 C          13.1141   40.2596   10.2673 C.ar    1  UNL1        0.0602
      5 C          14.0336   40.5934    9.2715 C.ar    1  UNL1        0.0294
      6 C          13.5258   39.3823   11.3937 C.3     1  UNL1        0.0521
      7 N          11.8423   40.7361   10.2069 N.ar    1  UNL1       -0.2539
      8 C          10.0286   42.0515    9.1398 C.3     1  UNL1        0.0581
      9 C           9.9041   43.3663    9.8948 C.3     1  UNL1        0.0089
     10 C           8.4688   43.8559    9.8094 C.3     1  UNL1        0.0196
     11 C           7.5225   42.7990   10.3826 C.3     1  UNL1        0.0969
     12 C           9.0599   41.0166    9.7191 C.3     1  UNL1        0.1027
     13 N           7.6673   41.4878    9.7312 N.3     1  UNL1       -0.1450
     14 S           6.9914   41.4962    8.1238 S.O2    1  UNL1        0.1021
     15 O           5.5470   41.0799    8.1936 O.2     1  UNL1       -0.1408
     16 O           7.0744   42.8744    7.5261 O.2     1  UNL1       -0.1408
     17 C           6.9108   39.5534    6.4291 C.3     1  UNL1        0.1161
     18 C           8.5685   41.1625    6.1076 C.3     1  UNL1        0.1161
     19 N           7.8764   40.3876    7.1233 N.3     1  UNL1       -0.1424
     20 N          14.5370   41.7973    7.1601 N.pl3   1  UNL1       -0.2981
     21 H          14.3152   41.4678    6.2593 H       1  UNL1        0.1536
     22 C          14.9064   44.0300    5.3535 C.3     1  UNL1        0.0340
     23 C          15.9131   43.6858    6.3972 C.ar    1  UNL1        0.0099
     24 C          15.7236   42.6001    7.2686 C.ar    1  UNL1        0.1281
     25 C          17.8040   43.0687    8.3304 C.ar    1  UNL1        0.1003
     26 C          18.0230   44.1534    7.4810 C.ar    1  UNL1        0.0204
     27 C          17.0694   44.4598    6.5106 C.ar    1  UNL1        0.0001
     28 N          16.6727   42.3242    8.2075 N.ar    1  UNL1       -0.2294
@<TRIPOS>BOND
     1    22    23    1
     2    24    28   ar
     3    24    20    1
     4    25    26   ar
     5    27    23   ar
     6     2     3   ar
     7     4     7   ar
     8     5     1   ar
     9     6     4    1
    10     8     3    1
    11     8     9    1
    12     9    10    1
    13    10    11    1
    14    11    13    1
    15    12    13    1
    16    12     8    1
    17    17    19    1
    18    18    19    1
    19    20     1    1
    20    14    13    1
    21    14    19    1
    22    23    24   ar
    23    25    28   ar
    24    26    27   ar
    25     1     2   ar
    26     3     7   ar
    27     4     5   ar
    28    14    15    2
    29    14    16    2
    30    20    21    1
@<TRIPOS>MOLECULE
MolPort-020-292-476 MCULE-4874534686 PubChem-110264944
 28 30 0 0 0
SMALL
GASTEIGER

@<TRIPOS>ATOM
      1 C          13.0294   41.3061    7.9035 C.ar    1  UNL1        0.0517
      2 C          11.6708   41.3089    7.5785 C.ar    1  UNL1        0.0294
      3 C          10.7414   40.7805    8.4780 C.ar    1  UNL1        0.0609
      4 C          12.4800   40.2489   10.0072 C.ar    1  UNL1        0.0602
      5 C          13.4351   40.7695    9.1323 C.ar    1  UNL1        0.0294
      6 C          12.9023   39.6773   11.3121 C.3     1  UNL1        0.0521
      7 N          11.1641   40.2640    9.6659 N.ar    1  UNL1       -0.2539
      8 C           9.2924   40.7833    8.1214 C.3     1  UNL1        0.0581
      9 C           9.0099   39.7935    7.0012 C.3     1  UNL1        0.0089
     10 C           7.5260   39.8169    6.6781 C.3     1  UNL1        0.0196
     11 C           7.1007   41.2327    6.2833 C.3     1  UNL1        0.0969
     12 C           8.8420   42.1881    7.7103 C.3     1  UNL1        0.1027
     13 N           7.4284   42.2355    7.3088 N.3     1  UNL1       -0.1450
     14 S           6.3760   42.0999    8.6926 S.O2    1  UNL1        0.1021
     15 O           5.3977   40.9801    8.4608 O.2     1  UNL1       -0.1408
     16 O           7.1742   41.8025    9.9327 O.2     1  UNL1       -0.1408
     17 C           5.6007   44.3346    7.6641 C.3     1  UNL1        0.1161
     18 C           4.1181   43.2757    9.1204 C.3     1  UNL1        0.1161
     19 N           5.5202   43.5942    8.9113 N.3     1  UNL1       -0.1424
     20 N          13.9637   41.8545    6.9633 N.pl3   1  UNL1       -0.2981
     21 H          13.7383   41.7449    6.0113 H       1  UNL1        0.1536
     22 C          14.4856   44.4023    5.6902 C.3     1  UNL1        0.0340
     23 C          15.4539   43.7820    6.6382 C.ar    1  UNL1        0.0099
     24 C          15.1905   42.5451    7.2503 C.ar    1  UNL1        0.1281
     25 C          17.2749   42.6515    8.3986 C.ar    1  UNL1        0.1003
     26 C          17.5674   43.8809    7.8079 C.ar    1  UNL1        0.0204
     27 C          16.6487   44.4454    6.9234 C.ar    1  UNL1        0.0001
     28 N          16.1069   42.0176    8.1107 N.ar    1  UNL1       -0.2294
@<TRIPOS>BOND
     1    22    23    1
     2    24    28   ar
     3    24    20    1
     4    25    26   ar
     5    27    23   ar
     6     2     3   ar
     7     4     7   ar
     8     5     1   ar
     9     6     4    1
    10     8     3    1
    11     8     9    1
    12     9    10    1
    13    10    11    1
    14    11    13    1
    15    12    13    1
    16    12     8    1
    17    17    19    1
    18    18    19    1
    19    20     1    1
    20    14    13    1
    21    14    19    1
    22    23    24   ar
    23    25    28   ar
    24    26    27   ar
    25     1     2   ar
    26     3     7   ar
    27     4     5   ar
    28    14    15    2
    29    14    16    2
    30    20    21    1
