@<TRIPOS>MOLECULE
MolPort-000-640-780 8048355 CSSS00160348931 MCULE-9317775528 PubChem-9179313 ZINC000008048355
 21 22 0 0 0
SMALL
GASTEIGER

@<TRIPOS>ATOM
      1 C           9.2244   41.7233    7.0796 C.ar    1  UNL1        0.0451
      2 C           9.8002   41.4474    5.8465 C.ar    1  UNL1        0.1044
      3 C          11.6503   41.8238    7.0652 C.ar    1  UNL1        0.1655
      4 N          11.1589   41.5043    5.8468 N.ar    1  UNL1       -0.2227
      5 S          10.4347   42.0527    8.2014 S.2     1  UNL1       -0.0543
      6 C          13.8989   42.9918    6.8598 C.2     1  UNL1        0.2509
      7 N          13.0442   41.9550    7.3601 N.am    1  UNL1       -0.2606
      8 O          13.4392   43.8842    6.0960 O.2     1  UNL1       -0.2698
      9 H          13.4480   41.2806    7.9529 H       1  UNL1        0.1571
     10 C          15.3223   43.0148    7.2400 C.ar    1  UNL1        0.0537
     11 C          16.1734   44.0115    6.7402 C.ar    1  UNL1        0.0045
     12 C          17.5241   44.0341    7.1003 C.ar    1  UNL1        0.0001
     13 C          18.0337   43.0601    7.9631 C.ar    1  UNL1        0.0000
     14 C          17.1931   42.0633    8.4659 C.ar    1  UNL1        0.0001
     15 C          15.8424   42.0407    8.1057 C.ar    1  UNL1        0.0045
     16 C           7.7607   41.7384    7.3584 C.3     1  UNL1        0.1074
     17 N           7.3675   43.0337    7.8928 N.3     1  UNL1       -0.2685
     18 C           5.4393   44.4829    7.5889 C.3     1  UNL1        0.0188
     19 C           6.5086   43.6577    6.8990 C.3     1  UNL1        0.0724
     20 C           6.5407   42.7740    9.0604 C.3     1  UNL1        0.0724
     21 C           6.3270   41.2808    9.2148 C.3     1  UNL1        0.0188
@<TRIPOS>BOND
     1    18    19    1
     2    19    17    1
     3    20    17    1
     4    20    21    1
     5    16    17    1
     6    16     1    1
     7     1     5   ar
     8     2     4   ar
     9     3     7    1
    10     3     5   ar
    11     6    10    1
    12    11    12   ar
    13    13    14   ar
    14    15    10   ar
    15     7     6   am
    16     1     2   ar
    17     3     4   ar
    18     6     8    2
    19    10    11   ar
    20    12    13   ar
    21    14    15   ar
    22     7     9    1
@<TRIPOS>MOLECULE
MolPort-000-640-780 8048355 CSSS00160348931 MCULE-9317775528 PubChem-9179313 ZINC000008048355
 21 22 0 0 0
SMALL
GASTEIGER

@<TRIPOS>ATOM
      1 C          10.1432   40.6714    6.7292 C.ar    1  UNL1        0.0451
      2 C          10.7690   39.5661    7.2906 C.ar    1  UNL1        0.1044
      3 C          12.5059   40.9883    7.1897 C.ar    1  UNL1        0.1655
      4 N          12.0916   39.7519    7.5468 N.ar    1  UNL1       -0.2227
      5 S          11.2633   41.9129    6.5402 S.2     1  UNL1       -0.0543
      6 C          14.3557   42.6891    6.8045 C.2     1  UNL1        0.2509
      7 N          13.8475   41.4615    7.3434 N.am    1  UNL1       -0.2606
      8 O          13.6056   43.4503    6.1342 O.2     1  UNL1       -0.2698
      9 H          14.4703   40.9003    7.8595 H       1  UNL1        0.1571
     10 C          15.7620   43.0636    7.0349 C.ar    1  UNL1        0.0537
     11 C          16.4456   42.5899    8.1645 C.ar    1  UNL1        0.0045
     12 C          17.7799   42.9446    8.3840 C.ar    1  UNL1        0.0001
     13 C          18.4406   43.7757    7.4755 C.ar    1  UNL1        0.0000
     14 C          17.7675   44.2523    6.3474 C.ar    1  UNL1        0.0001
     15 C          16.4330   43.8977    6.1279 C.ar    1  UNL1        0.0045
     16 C           8.7057   40.7385    6.3426 C.3     1  UNL1        0.1074
     17 N           7.8752   40.2091    7.4140 N.3     1  UNL1       -0.2685
     18 C           6.8130   41.3377    9.2871 C.3     1  UNL1        0.0188
     19 C           6.9352   41.2575    7.7775 C.3     1  UNL1        0.0724
     20 C           7.0946   39.1227    6.8440 C.3     1  UNL1        0.0724
     21 C           5.9811   39.6884    5.9842 C.3     1  UNL1        0.0188
@<TRIPOS>BOND
     1    18    19    1
     2    19    17    1
     3    20    17    1
     4    20    21    1
     5    16    17    1
     6    16     1    1
     7     1     5   ar
     8     2     4   ar
     9     3     7    1
    10     3     5   ar
    11     6    10    1
    12    11    12   ar
    13    13    14   ar
    14    15    10   ar
    15     7     6   am
    16     1     2   ar
    17     3     4   ar
    18     6     8    2
    19    10    11   ar
    20    12    13   ar
    21    14    15   ar
    22     7     9    1
@<TRIPOS>MOLECULE
MolPort-000-640-780 8048355 CSSS00160348931 MCULE-9317775528 PubChem-9179313 ZINC000008048355
 21 22 0 0 0
SMALL
GASTEIGER

@<TRIPOS>ATOM
      1 C           9.3699   40.8354    6.6824 C.ar    1  UNL1        0.0451
      2 C           9.9361   40.4181    5.4850 C.ar    1  UNL1        0.1044
      3 C          11.6455   41.6058    6.3318 C.ar    1  UNL1        0.1655
      4 N          11.2109   40.8524    5.2967 N.ar    1  UNL1       -0.2227
      5 S          10.4800   41.7744    7.5294 S.2     1  UNL1       -0.0543
      6 C          13.9463   41.8703    7.3803 C.2     1  UNL1        0.2509
      7 N          12.9469   42.1961    6.4052 N.am    1  UNL1       -0.2606
      8 O          13.7141   41.0029    8.2663 O.2     1  UNL1       -0.2698
      9 H          13.1738   42.8792    5.7336 H       1  UNL1        0.1571
     10 C          15.2518   42.5528    7.3472 C.ar    1  UNL1        0.0537
     11 C          16.3158   42.0855    8.1328 C.ar    1  UNL1        0.0045
     12 C          17.5548   42.7324    8.1021 C.ar    1  UNL1        0.0001
     13 C          17.7390   43.8514    7.2856 C.ar    1  UNL1        0.0000
     14 C          16.6845   44.3238    6.4996 C.ar    1  UNL1        0.0001
     15 C          15.4454   43.6770    6.5304 C.ar    1  UNL1        0.0045
     16 C           7.9880   40.5114    7.1363 C.3     1  UNL1        0.1074
     17 N           7.3352   41.7093    7.6431 N.3     1  UNL1       -0.2685
     18 C           6.6129   43.9073    6.8965 C.3     1  UNL1        0.0188
     19 C           6.9021   42.4762    6.4859 C.3     1  UNL1        0.0724
     20 C           6.1321   41.2730    8.3335 C.3     1  UNL1        0.0724
     21 C           6.2819   41.5107    9.8235 C.3     1  UNL1        0.0188
@<TRIPOS>BOND
     1    18    19    1
     2    19    17    1
     3    20    17    1
     4    20    21    1
     5    16    17    1
     6    16     1    1
     7     1     5   ar
     8     2     4   ar
     9     3     7    1
    10     3     5   ar
    11     6    10    1
    12    11    12   ar
    13    13    14   ar
    14    15    10   ar
    15     7     6   am
    16     1     2   ar
    17     3     4   ar
    18     6     8    2
    19    10    11   ar
    20    12    13   ar
    21    14    15   ar
    22     7     9    1
@<TRIPOS>MOLECULE
MolPort-000-640-780 8048355 CSSS00160348931 MCULE-9317775528 PubChem-9179313 ZINC000008048355
 21 22 0 0 0
SMALL
GASTEIGER

@<TRIPOS>ATOM
      1 C           8.3384   40.5580    6.1145 C.ar    1  UNL1        0.0451
      2 C           9.0198   39.7365    5.2261 C.ar    1  UNL1        0.1044
      3 C          10.6545   41.1874    5.7477 C.ar    1  UNL1        0.1655
      4 N          10.3165   40.0946    5.0270 N.ar    1  UNL1       -0.2227
      5 S           9.3721   41.7664    6.6649 S.2     1  UNL1       -0.0543
      6 C          12.7999   41.9462    6.8809 C.2     1  UNL1        0.2509
      7 N          11.9531   41.7881    5.7348 N.am    1  UNL1       -0.2606
      8 O          12.4211   41.5425    8.0144 O.2     1  UNL1       -0.2698
      9 H          12.2916   42.1187    4.8714 H       1  UNL1        0.1571
     10 C          14.1201   42.5839    6.7338 C.ar    1  UNL1        0.0537
     11 C          14.3366   43.5422    5.7326 C.ar    1  UNL1        0.0045
     12 C          15.5888   44.1478    5.5921 C.ar    1  UNL1        0.0001
     13 C          16.6339   43.7996    6.4520 C.ar    1  UNL1        0.0000
     14 C          16.4272   42.8459    7.4523 C.ar    1  UNL1        0.0001
     15 C          15.1750   42.2402    7.5927 C.ar    1  UNL1        0.0045
     16 C           6.9095   40.3989    6.5061 C.3     1  UNL1        0.1074
     17 N           6.5056   41.4930    7.3765 N.3     1  UNL1       -0.2685
     18 C           6.1856   41.4250    9.7856 C.3     1  UNL1        0.0188
     19 C           7.1808   41.2922    8.6487 C.3     1  UNL1        0.0724
     20 C           7.0484   42.7124    6.7996 C.3     1  UNL1        0.0724
     21 C           6.1525   43.8857    7.1456 C.3     1  UNL1        0.0188
@<TRIPOS>BOND
     1    18    19    1
     2    19    17    1
     3    20    17    1
     4    20    21    1
     5    16    17    1
     6    16     1    1
     7     1     5   ar
     8     2     4   ar
     9     3     7    1
    10     3     5   ar
    11     6    10    1
    12    11    12   ar
    13    13    14   ar
    14    15    10   ar
    15     7     6   am
    16     1     2   ar
    17     3     4   ar
    18     6     8    2
    19    10    11   ar
    20    12    13   ar
    21    14    15   ar
    22     7     9    1
@<TRIPOS>MOLECULE
MolPort-000-640-780 8048355 CSSS00160348931 MCULE-9317775528 PubChem-9179313 ZINC000008048355
 21 22 0 0 0
SMALL
GASTEIGER

@<TRIPOS>ATOM
      1 C           8.3928   43.8112    9.4767 C.ar    1  UNL1        0.0451
      2 C           9.5049   44.4452   10.0148 C.ar    1  UNL1        0.1044
      3 C          10.0840   42.2986   10.3409 C.ar    1  UNL1        0.1655
      4 N          10.4481   43.5915   10.4954 N.ar    1  UNL1       -0.2227
      5 S           8.5820   42.1440    9.6054 S.2     1  UNL1       -0.0543
      6 C          11.7582   40.4363    9.9028 C.2     1  UNL1        0.2509
      7 N          10.8809   41.1847   10.7550 N.am    1  UNL1       -0.2606
      8 O          11.8756   40.7397    8.6840 O.2     1  UNL1       -0.2698
      9 H          10.8223   40.9107   11.6988 H       1  UNL1        0.1571
     10 C          12.5269   39.3065   10.4540 C.ar    1  UNL1        0.0537
     11 C          13.6008   39.5383   11.3262 C.ar    1  UNL1        0.0045
     12 C          14.3308   38.4671   11.8496 C.ar    1  UNL1        0.0001
     13 C          13.9922   37.1559   11.5047 C.ar    1  UNL1        0.0000
     14 C          12.9238   36.9155   10.6366 C.ar    1  UNL1        0.0001
     15 C          12.1939   37.9869   10.1130 C.ar    1  UNL1        0.0045
     16 C           7.2109   44.5038    8.8903 C.3     1  UNL1        0.1074
     17 N           6.3919   43.5546    8.1512 N.3     1  UNL1       -0.2685
     18 C           4.2999   43.1427    9.3193 C.3     1  UNL1        0.0188
     19 C           5.0119   43.9933    8.2849 C.3     1  UNL1        0.0724
     20 C           6.7449   43.6972    6.7479 C.3     1  UNL1        0.0724
     21 C           6.9677   42.3287    6.1341 C.3     1  UNL1        0.0188
@<TRIPOS>BOND
     1    18    19    1
     2    19    17    1
     3    20    17    1
     4    20    21    1
     5    16    17    1
     6    16     1    1
     7     1     5   ar
     8     2     4   ar
     9     3     7    1
    10     3     5   ar
    11     6    10    1
    12    11    12   ar
    13    13    14   ar
    14    15    10   ar
    15     7     6   am
    16     1     2   ar
    17     3     4   ar
    18     6     8    2
    19    10    11   ar
    20    12    13   ar
    21    14    15   ar
    22     7     9    1
@<TRIPOS>MOLECULE
MolPort-000-640-780 8048355 CSSS00160348931 MCULE-9317775528 PubChem-9179313 ZINC000008048355
 21 22 0 0 0
SMALL
GASTEIGER

@<TRIPOS>ATOM
      1 C          12.1992   39.7980    9.8950 C.ar    1  UNL1        0.0451
      2 C          13.0136   39.9086   11.0144 C.ar    1  UNL1        0.1044
      3 C          14.3835   38.7673    9.6466 C.ar    1  UNL1        0.1655
      4 N          14.2355   39.3303   10.8670 N.ar    1  UNL1       -0.2227
      5 S          13.0157   38.9540    8.6898 S.2     1  UNL1       -0.0543
      6 C          15.8146   36.6846    9.3696 C.2     1  UNL1        0.2509
      7 N          15.5659   38.0880    9.2134 N.am    1  UNL1       -0.2606
      8 O          14.9588   35.9431    9.9254 O.2     1  UNL1       -0.2698
      9 H          16.2631   38.6262    8.7736 H       1  UNL1        0.1571
     10 C          17.0772   36.1054    8.8781 C.ar    1  UNL1        0.0537
     11 C          18.3077   36.6586    9.2624 C.ar    1  UNL1        0.0045
     12 C          19.5061   36.1099    8.7966 C.ar    1  UNL1        0.0001
     13 C          19.4831   35.0037    7.9430 C.ar    1  UNL1        0.0000
     14 C          18.2619   34.4460    7.5550 C.ar    1  UNL1        0.0001
     15 C          17.0633   34.9949    8.0207 C.ar    1  UNL1        0.0045
     16 C          10.8125   40.3327    9.7872 C.3     1  UNL1        0.1074
     17 N          10.6785   41.5387   10.5907 N.3     1  UNL1       -0.2685
     18 C          10.0782   43.8502   10.1355 C.3     1  UNL1        0.0188
     19 C          10.9223   42.6659    9.7049 C.3     1  UNL1        0.0724
     20 C           9.2857   41.6189   11.0007 C.3     1  UNL1        0.0724
     21 C           9.1414   41.1186   12.4248 C.3     1  UNL1        0.0188
@<TRIPOS>BOND
     1    18    19    1
     2    19    17    1
     3    20    17    1
     4    20    21    1
     5    16    17    1
     6    16     1    1
     7     1     5   ar
     8     2     4   ar
     9     3     7    1
    10     3     5   ar
    11     6    10    1
    12    11    12   ar
    13    13    14   ar
    14    15    10   ar
    15     7     6   am
    16     1     2   ar
    17     3     4   ar
    18     6     8    2
    19    10    11   ar
    20    12    13   ar
    21    14    15   ar
    22     7     9    1
@<TRIPOS>MOLECULE
MolPort-000-640-780 8048355 CSSS00160348931 MCULE-9317775528 PubChem-9179313 ZINC000008048355
 21 22 0 0 0
SMALL
GASTEIGER

@<TRIPOS>ATOM
      1 C          10.7623   40.7587    8.7962 C.ar    1  UNL1        0.0451
      2 C          11.5640   41.7019    8.1670 C.ar    1  UNL1        0.1044
      3 C          13.1302   40.2219    8.8045 C.ar    1  UNL1        0.1655
      4 N          12.8885   41.3936    8.1745 N.ar    1  UNL1       -0.2227
      5 S          11.7240   39.5090    9.3836 S.2     1  UNL1       -0.0543
      6 C          15.0309   39.3014   10.2196 C.2     1  UNL1        0.2509
      7 N          14.4317   39.6494    8.9644 N.am    1  UNL1       -0.2606
      8 O          14.4072   39.4932   11.2991 O.2     1  UNL1       -0.2698
      9 H          14.9568   39.4813    8.1487 H       1  UNL1        0.1571
     10 C          16.3830   38.7163   10.2486 C.ar    1  UNL1        0.0537
     11 C          16.5618   37.3360   10.0746 C.ar    1  UNL1        0.0045
     12 C          17.8442   36.7799   10.1020 C.ar    1  UNL1        0.0001
     13 C          18.9574   37.6003   10.3035 C.ar    1  UNL1        0.0000
     14 C          18.7887   38.9765   10.4778 C.ar    1  UNL1        0.0001
     15 C          17.5062   39.5326   10.4505 C.ar    1  UNL1        0.0045
     16 C           9.2819   40.8499    8.9392 C.3     1  UNL1        0.1074
     17 N           8.9386   41.8197    9.9686 N.3     1  UNL1       -0.2685
     18 C           9.1761   41.1748   12.3006 C.3     1  UNL1        0.0188
     19 C           9.8947   41.6443   11.0501 C.3     1  UNL1        0.0724
     20 C           9.1798   43.1374    9.4028 C.3     1  UNL1        0.0724
     21 C           9.1818   44.1764   10.5071 C.3     1  UNL1        0.0188
@<TRIPOS>BOND
     1    18    19    1
     2    19    17    1
     3    20    17    1
     4    20    21    1
     5    16    17    1
     6    16     1    1
     7     1     5   ar
     8     2     4   ar
     9     3     7    1
    10     3     5   ar
    11     6    10    1
    12    11    12   ar
    13    13    14   ar
    14    15    10   ar
    15     7     6   am
    16     1     2   ar
    17     3     4   ar
    18     6     8    2
    19    10    11   ar
    20    12    13   ar
    21    14    15   ar
    22     7     9    1
@<TRIPOS>MOLECULE
MolPort-000-640-780 8048355 CSSS00160348931 MCULE-9317775528 PubChem-9179313 ZINC000008048355
 21 22 0 0 0
SMALL
GASTEIGER

@<TRIPOS>ATOM
      1 C           7.9512   42.6223    9.5555 C.ar    1  UNL1        0.0451
      2 C           8.6828   43.7819    9.7760 C.ar    1  UNL1        0.1044
      3 C          10.3320   42.2580    9.8623 C.ar    1  UNL1        0.1655
      4 N          10.0153   43.5698    9.9454 N.ar    1  UNL1       -0.2227
      5 S           8.9857   41.2952    9.5768 S.2     1  UNL1       -0.0543
      6 C          11.9855   40.3899   10.3513 C.2     1  UNL1        0.2509
      7 N          11.6591   41.7416   10.0018 N.am    1  UNL1       -0.2606
      8 O          11.0710   39.5475   10.5638 O.2     1  UNL1       -0.2698
      9 H          12.4066   42.3630    9.8455 H       1  UNL1        0.1571
     10 C          13.3972   39.9828   10.4630 C.ar    1  UNL1        0.0537
     11 C          14.3302   40.3878    9.4970 C.ar    1  UNL1        0.0045
     12 C          15.6698   40.0020    9.6021 C.ar    1  UNL1        0.0001
     13 C          16.0864   39.2082   10.6740 C.ar    1  UNL1        0.0000
     14 C          15.1638   38.8000   11.6410 C.ar    1  UNL1        0.0001
     15 C          13.8241   39.1857   11.5359 C.ar    1  UNL1        0.0045
     16 C           6.4768   42.5651    9.3471 C.3     1  UNL1        0.1074
     17 N           6.1795   42.3558    7.9380 N.3     1  UNL1       -0.2685
     18 C           5.2666   44.5996    7.7328 C.3     1  UNL1        0.0188
     19 C           6.3478   43.6393    7.2754 C.3     1  UNL1        0.0724
     20 C           7.2115   41.4741    7.4164 C.3     1  UNL1        0.0724
     21 C           6.5979   40.4875    6.4423 C.3     1  UNL1        0.0188
@<TRIPOS>BOND
     1    18    19    1
     2    19    17    1
     3    20    17    1
     4    20    21    1
     5    16    17    1
     6    16     1    1
     7     1     5   ar
     8     2     4   ar
     9     3     7    1
    10     3     5   ar
    11     6    10    1
    12    11    12   ar
    13    13    14   ar
    14    15    10   ar
    15     7     6   am
    16     1     2   ar
    17     3     4   ar
    18     6     8    2
    19    10    11   ar
    20    12    13   ar
    21    14    15   ar
    22     7     9    1
@<TRIPOS>MOLECULE
MolPort-000-640-780 8048355 CSSS00160348931 MCULE-9317775528 PubChem-9179313 ZINC000008048355
 21 22 0 0 0
SMALL
GASTEIGER

@<TRIPOS>ATOM
      1 C          13.3411   40.0214   10.4968 C.ar    1  UNL1        0.0451
      2 C          13.7333   40.6513    9.3230 C.ar    1  UNL1        0.1044
      3 C          11.6196   41.3981    9.4789 C.ar    1  UNL1        0.1655
      4 N          12.7644   41.4215    8.7598 N.ar    1  UNL1       -0.2227
      5 S          11.7451   40.4268   10.8434 S.2     1  UNL1       -0.0543
      6 C           9.5769   41.7964    8.0189 C.2     1  UNL1        0.2509
      7 N          10.4333   42.1149    9.1239 N.am    1  UNL1       -0.2606
      8 O           9.8422   40.8184    7.2676 O.2     1  UNL1       -0.2698
      9 H          10.1856   42.8872    9.6821 H       1  UNL1        0.1571
     10 C           8.3804   42.6163    7.7595 C.ar    1  UNL1        0.0537
     11 C           7.6701   42.4734    6.5583 C.ar    1  UNL1        0.0045
     12 C           6.5348   43.2508    6.3112 C.ar    1  UNL1        0.0001
     13 C           6.1013   44.1770    7.2635 C.ar    1  UNL1        0.0000
     14 C           6.8027   44.3261    8.4630 C.ar    1  UNL1        0.0001
     15 C           7.9381   43.5487    8.7101 C.ar    1  UNL1        0.0045
     16 C          14.1991   39.1163   11.3123 C.3     1  UNL1        0.1074
     17 N          14.4460   37.8774   10.5898 N.3     1  UNL1       -0.2685
     18 C          16.5652   38.7541   11.3967 C.3     1  UNL1        0.0188
     19 C          15.8694   37.6006   10.6997 C.3     1  UNL1        0.0724
     20 C          13.7549   36.8228   11.3141 C.3     1  UNL1        0.0724
     21 C          12.9909   35.9479   10.3394 C.3     1  UNL1        0.0188
@<TRIPOS>BOND
     1    18    19    1
     2    19    17    1
     3    20    17    1
     4    20    21    1
     5    16    17    1
     6    16     1    1
     7     1     5   ar
     8     2     4   ar
     9     3     7    1
    10     3     5   ar
    11     6    10    1
    12    11    12   ar
    13    13    14   ar
    14    15    10   ar
    15     7     6   am
    16     1     2   ar
    17     3     4   ar
    18     6     8    2
    19    10    11   ar
    20    12    13   ar
    21    14    15   ar
    22     7     9    1
@<TRIPOS>MOLECULE
MolPort-000-640-780 8048355 CSSS00160348931 MCULE-9317775528 PubChem-9179313 ZINC000008048355
 21 22 0 0 0
SMALL
GASTEIGER

@<TRIPOS>ATOM
      1 C          13.0429   37.2302   10.6406 C.ar    1  UNL1        0.0451
      2 C          11.8769   36.5214   10.3828 C.ar    1  UNL1        0.1044
      3 C          11.1773   38.6055    9.9171 C.ar    1  UNL1        0.1655
      4 N          10.8372   37.2983    9.9768 N.ar    1  UNL1       -0.2227
      5 S          12.7753   38.8681   10.3623 S.2     1  UNL1       -0.0543
      6 C           9.7116   39.7968    8.2156 C.2     1  UNL1        0.2509
      7 N          10.2836   39.6508    9.5222 N.am    1  UNL1       -0.2606
      8 O           9.9828   38.9678    7.3043 O.2     1  UNL1       -0.2698
      9 H          10.0427   40.3223   10.2006 H       1  UNL1        0.1571
     10 C           8.8018   40.9216    7.9358 C.ar    1  UNL1        0.0537
     11 C           8.0557   41.5041    8.9711 C.ar    1  UNL1        0.0045
     12 C           7.1923   42.5713    8.7067 C.ar    1  UNL1        0.0001
     13 C           7.0685   43.0640    7.4049 C.ar    1  UNL1        0.0000
     14 C           7.8079   42.4899    6.3673 C.ar    1  UNL1        0.0001
     15 C           8.6713   41.4225    6.6317 C.ar    1  UNL1        0.0045
     16 C          14.3257   36.6311   11.1051 C.3     1  UNL1        0.1074
     17 N          14.9361   35.8629   10.0304 N.3     1  UNL1       -0.2685
     18 C          14.0327   33.7511    9.2336 C.3     1  UNL1        0.0188
     19 C          13.8511   35.2563    9.2756 C.3     1  UNL1        0.0724
     20 C          15.5826   36.8180    9.1448 C.3     1  UNL1        0.0724
     21 C          16.0222   36.1204    7.8723 C.3     1  UNL1        0.0188
@<TRIPOS>BOND
     1    18    19    1
     2    19    17    1
     3    20    17    1
     4    20    21    1
     5    16    17    1
     6    16     1    1
     7     1     5   ar
     8     2     4   ar
     9     3     7    1
    10     3     5   ar
    11     6    10    1
    12    11    12   ar
    13    13    14   ar
    14    15    10   ar
    15     7     6   am
    16     1     2   ar
    17     3     4   ar
    18     6     8    2
    19    10    11   ar
    20    12    13   ar
    21    14    15   ar
    22     7     9    1
