@<TRIPOS>MOLECULE
Molport-020-293-006 MCULE-2810227855 PubChem-110265473
 30 33 0 0 0
SMALL
GASTEIGER

@<TRIPOS>ATOM
      1 C          11.0614   38.0082    9.3931 C.3     1  UNL1        0.0725
      2 C          11.9569   36.8953    9.9426 C.3     1  UNL1        0.0178
      3 C          13.0527   37.4885   10.8326 C.3     1  UNL1        0.0087
      4 C          13.6120   38.8036   10.2718 C.3     1  UNL1        0.0563
      5 C          13.2491   39.0005    8.7959 C.3     1  UNL1        0.0784
      6 N          11.7919   38.9855    8.5608 N.3     1  UNL1       -0.2647
      7 C          15.0912   38.8911   10.4656 C.ar    1  UNL1        0.0614
      8 C          17.1333   40.0156    9.9740 C.ar    1  UNL1        0.1328
      9 C          17.8473   39.0643   10.7159 C.ar    1  UNL1        0.0344
     10 C          17.1643   38.0195   11.3374 C.ar    1  UNL1        0.0041
     11 C          15.7790   37.9264   11.2140 C.ar    1  UNL1        0.0149
     12 N          15.7811   39.9018    9.8701 N.ar    1  UNL1       -0.2348
     13 N          17.7922   41.0981    9.3008 N.pl3   1  UNL1       -0.2834
     14 H          18.7671   41.1610    9.4225 H       1  UNL1        0.1550
     15 C          17.1867   42.0990    8.4699 C.ar    1  UNL1        0.1332
     16 C          15.8793   41.9050    8.0153 C.ar    1  UNL1        0.0345
     17 C          15.2795   42.8791    7.2130 C.ar    1  UNL1        0.0045
     18 C          15.9849   44.0356    6.8766 C.ar    1  UNL1        0.0208
     19 C          17.2876   44.1996    7.3521 C.ar    1  UNL1        0.1003
     20 N          17.8546   43.2379    8.1301 N.ar    1  UNL1       -0.2290
     21 C          11.2481   40.3015    8.8880 C.3     1  UNL1        0.1587
     22 C           9.5817   38.4878    3.0555 C.3     1  UNL1        0.0001
     23 C           9.6751   39.5900    4.0879 C.3     1  UNL1        0.0034
     24 C           8.4812   39.5049    5.0372 C.3     1  UNL1        0.0216
     25 C           8.5746   40.6151    6.0808 C.3     1  UNL1        0.0934
     26 C          11.0769   40.5422    5.9341 C.3     1  UNL1        0.0934
     27 C          10.9791   39.4497    4.8694 C.3     1  UNL1        0.0216
     28 C           9.9414   40.5319    8.1896 C.2     1  UNL1        0.2420
     29 N           9.8677   40.5381    6.7569 N.am    1  UNL1       -0.2784
     30 O           8.8987   40.7009    8.8759 O.2     1  UNL1       -0.2734
@<TRIPOS>BOND
     1    22    23    1
     2    23    24    1
     3    24    25    1
     4    25    29    1
     5    26    29    1
     6    26    27    1
     7    27    23    1
     8    21    28    1
     9    21     6    1
    10     1     6    1
    11     1     2    1
    12     2     3    1
    13     3     4    1
    14     4     5    1
    15     4     7    1
    16     5     6    1
    17     8    12   ar
    18     8    13    1
    19     9    10   ar
    20    11     7   ar
    21    15    20   ar
    22    16    17   ar
    23    18    19   ar
    24    29    28   am
    25    13    15    1
    26    28    30    2
    27     7    12   ar
    28     8     9   ar
    29    10    11   ar
    30    15    16   ar
    31    17    18   ar
    32    19    20   ar
    33    13    14    1
@<TRIPOS>MOLECULE
Molport-020-293-006 MCULE-2810227855 PubChem-110265473
 30 33 0 0 0
SMALL
GASTEIGER

@<TRIPOS>ATOM
      1 C          10.3057   38.7872    8.4035 C.3     1  UNL1        0.0725
      2 C          10.9853   37.6400    9.1548 C.3     1  UNL1        0.0178
      3 C          11.9423   38.1943   10.2138 C.3     1  UNL1        0.0087
      4 C          12.7060   39.4313    9.7203 C.3     1  UNL1        0.0563
      5 C          12.6426   39.5766    8.1959 C.3     1  UNL1        0.0784
      6 N          11.2589   39.6603    7.6889 N.3     1  UNL1       -0.2647
      7 C          14.1252   39.4159   10.1883 C.ar    1  UNL1        0.0614
      8 C          16.3592   40.1918    9.9002 C.ar    1  UNL1        0.1328
      9 C          16.7904   39.3715   10.9521 C.ar    1  UNL1        0.0344
     10 C          15.8686   38.5698   11.6243 C.ar    1  UNL1        0.0041
     11 C          14.5277   38.5867   11.2439 C.ar    1  UNL1        0.0149
     12 N          15.0443   40.1900    9.5495 N.ar    1  UNL1       -0.2348
     13 N          17.2720   41.0206    9.1659 N.pl3   1  UNL1       -0.2834
     14 H          18.2283   40.8035    9.2536 H       1  UNL1        0.1550
     15 C          16.9445   42.1310    8.3181 C.ar    1  UNL1        0.1332
     16 C          17.9178   43.1009    8.0623 C.ar    1  UNL1        0.0345
     17 C          17.6095   44.1807    7.2308 C.ar    1  UNL1        0.0045
     18 C          16.3395   44.2801    6.6603 C.ar    1  UNL1        0.0208
     19 C          15.3926   43.2906    6.9330 C.ar    1  UNL1        0.1003
     20 N          15.7120   42.2485    7.7476 N.ar    1  UNL1       -0.2290
     21 C          10.7774   41.0295    7.8568 C.3     1  UNL1        0.1587
     22 C           5.4964   44.4914    8.3168 C.3     1  UNL1        0.0001
     23 C           6.1743   43.2278    7.8337 C.3     1  UNL1        0.0034
     24 C           6.8800   43.5007    6.5065 C.3     1  UNL1        0.0216
     25 C           7.5661   42.2274    6.0184 C.3     1  UNL1        0.0934
     26 C           7.8949   41.4941    8.3938 C.3     1  UNL1        0.0934
     27 C           7.1831   42.7571    8.8785 C.3     1  UNL1        0.0216
     28 C           9.8209   41.4007    6.7633 C.2     1  UNL1        0.2420
     29 N           8.4557   41.7245    7.0628 N.am    1  UNL1       -0.2784
     30 O          10.2338   41.4458    5.5740 O.2     1  UNL1       -0.2734
@<TRIPOS>BOND
     1    22    23    1
     2    23    24    1
     3    24    25    1
     4    25    29    1
     5    26    29    1
     6    26    27    1
     7    27    23    1
     8    21    28    1
     9    21     6    1
    10     1     6    1
    11     1     2    1
    12     2     3    1
    13     3     4    1
    14     4     5    1
    15     4     7    1
    16     5     6    1
    17     8    12   ar
    18     8    13    1
    19     9    10   ar
    20    11     7   ar
    21    15    20   ar
    22    16    17   ar
    23    18    19   ar
    24    29    28   am
    25    13    15    1
    26    28    30    2
    27     7    12   ar
    28     8     9   ar
    29    10    11   ar
    30    15    16   ar
    31    17    18   ar
    32    19    20   ar
    33    13    14    1
@<TRIPOS>MOLECULE
Molport-020-293-006 MCULE-2810227855 PubChem-110265473
 30 33 0 0 0
SMALL
GASTEIGER

@<TRIPOS>ATOM
      1 C          10.6351   39.2823    9.8440 C.3     1  UNL1        0.0725
      2 C          11.5072   38.1650    9.2664 C.3     1  UNL1        0.0178
      3 C          12.6924   37.8851   10.1945 C.3     1  UNL1        0.0087
      4 C          13.2795   39.1701   10.7954 C.3     1  UNL1        0.0563
      5 C          12.8247   40.4209   10.0355 C.3     1  UNL1        0.0784
      6 N          11.3559   40.5622    9.9986 N.3     1  UNL1       -0.2647
      7 C          14.7713   39.1074   10.8596 C.ar    1  UNL1        0.0614
      8 C          16.8662   39.9708   10.1236 C.ar    1  UNL1        0.1328
      9 C          17.5418   38.9939   10.8684 C.ar    1  UNL1        0.0344
     10 C          16.8129   38.0694   11.6157 C.ar    1  UNL1        0.0041
     11 C          15.4199   38.1205   11.6140 C.ar    1  UNL1        0.0149
     12 N          15.5057   39.9989   10.1401 N.ar    1  UNL1       -0.2348
     13 N          17.5705   40.9323    9.3245 N.pl3   1  UNL1       -0.2834
     14 H          18.5526   40.8634    9.3205 H       1  UNL1        0.1550
     15 C          17.0011   41.9831    8.5305 C.ar    1  UNL1        0.1332
     16 C          17.7570   43.1319    8.2805 C.ar    1  UNL1        0.0345
     17 C          17.2129   44.1559    7.5010 C.ar    1  UNL1        0.0045
     18 C          15.9264   44.0232    6.9760 C.ar    1  UNL1        0.0208
     19 C          15.2008   42.8599    7.2413 C.ar    1  UNL1        0.1003
     20 N          15.7478   41.8755    8.0049 N.ar    1  UNL1       -0.2290
     21 C          10.9065   41.1445   11.2610 C.3     1  UNL1        0.1587
     22 C           7.0238   41.8714    6.3131 C.3     1  UNL1        0.0001
     23 C           7.4860   42.3476    7.6729 C.3     1  UNL1        0.0034
     24 C           6.8147   41.5136    8.7628 C.3     1  UNL1        0.0216
     25 C           7.2811   41.9913   10.1356 C.3     1  UNL1        0.0934
     26 C           9.4842   42.6722    9.1499 C.3     1  UNL1        0.0934
     27 C           9.0039   42.2179    7.7716 C.3     1  UNL1        0.0216
     28 C           9.4163   41.3109   11.2758 C.2     1  UNL1        0.2420
     29 N           8.7410   41.9610   10.1898 N.am    1  UNL1       -0.2784
     30 O           8.7562   40.8541   12.2465 O.2     1  UNL1       -0.2734
@<TRIPOS>BOND
     1    22    23    1
     2    23    24    1
     3    24    25    1
     4    25    29    1
     5    26    29    1
     6    26    27    1
     7    27    23    1
     8    21    28    1
     9    21     6    1
    10     1     6    1
    11     1     2    1
    12     2     3    1
    13     3     4    1
    14     4     5    1
    15     4     7    1
    16     5     6    1
    17     8    12   ar
    18     8    13    1
    19     9    10   ar
    20    11     7   ar
    21    15    20   ar
    22    16    17   ar
    23    18    19   ar
    24    29    28   am
    25    13    15    1
    26    28    30    2
    27     7    12   ar
    28     8     9   ar
    29    10    11   ar
    30    15    16   ar
    31    17    18   ar
    32    19    20   ar
    33    13    14    1
@<TRIPOS>MOLECULE
Molport-020-293-006 MCULE-2810227855 PubChem-110265473
 30 33 0 0 0
SMALL
GASTEIGER

@<TRIPOS>ATOM
      1 C           9.8950   39.2031    7.5332 C.3     1  UNL1        0.0725
      2 C          10.2511   38.1770    8.6116 C.3     1  UNL1        0.0178
      3 C          11.1748   38.8073    9.6575 C.3     1  UNL1        0.0087
      4 C          12.2145   39.7456    9.0285 C.3     1  UNL1        0.0563
      5 C          12.3492   39.5254    7.5179 C.3     1  UNL1        0.0784
      6 N          11.0729   39.7088    6.7995 N.3     1  UNL1       -0.2647
      7 C          13.5430   39.6122    9.6998 C.ar    1  UNL1        0.0614
      8 C          15.8568   40.1787    9.7377 C.ar    1  UNL1        0.1328
      9 C          16.0533   39.3439   10.8467 C.ar    1  UNL1        0.0344
     10 C          14.9739   38.6414   11.3813 C.ar    1  UNL1        0.0041
     11 C          13.7099   38.7711   10.8082 C.ar    1  UNL1        0.0149
     12 N          14.6123   40.2879    9.1979 N.ar    1  UNL1       -0.2348
     13 N          16.9388   40.9077    9.1401 N.pl3   1  UNL1       -0.2834
     14 H          17.8450   40.5600    9.3049 H       1  UNL1        0.1550
     15 C          16.8454   42.0875    8.3288 C.ar    1  UNL1        0.1332
     16 C          17.8696   43.0365    8.3890 C.ar    1  UNL1        0.0345
     17 C          17.7904   44.1839    7.5955 C.ar    1  UNL1        0.0045
     18 C          16.6966   44.3712    6.7489 C.ar    1  UNL1        0.0208
     19 C          15.6934   43.4004    6.7098 C.ar    1  UNL1        0.1003
     20 N          15.7882   42.2914    7.4924 N.ar    1  UNL1       -0.2290
     21 C          10.8516   41.1377    6.5890 C.3     1  UNL1        0.1587
     22 C           8.0593   41.4233   12.2640 C.3     1  UNL1        0.0001
     23 C           8.6524   42.1527   11.0784 C.3     1  UNL1        0.0034
     24 C          10.1717   42.2175   11.2249 C.3     1  UNL1        0.0216
     25 C          10.7722   42.9514   10.0286 C.3     1  UNL1        0.0934
     26 C           8.8922   42.1346    8.5840 C.3     1  UNL1        0.0934
     27 C           8.2791   41.4234    9.7902 C.3     1  UNL1        0.0216
     28 C          11.2799   41.9301    7.7878 C.2     1  UNL1        0.2420
     29 N          10.3292   42.3093    8.7930 N.am    1  UNL1       -0.2784
     30 O          12.4930   42.2448    7.9156 O.2     1  UNL1       -0.2734
@<TRIPOS>BOND
     1    22    23    1
     2    23    24    1
     3    24    25    1
     4    25    29    1
     5    26    29    1
     6    26    27    1
     7    27    23    1
     8    21    28    1
     9    21     6    1
    10     1     6    1
    11     1     2    1
    12     2     3    1
    13     3     4    1
    14     4     5    1
    15     4     7    1
    16     5     6    1
    17     8    12   ar
    18     8    13    1
    19     9    10   ar
    20    11     7   ar
    21    15    20   ar
    22    16    17   ar
    23    18    19   ar
    24    29    28   am
    25    13    15    1
    26    28    30    2
    27     7    12   ar
    28     8     9   ar
    29    10    11   ar
    30    15    16   ar
    31    17    18   ar
    32    19    20   ar
    33    13    14    1
@<TRIPOS>MOLECULE
Molport-020-293-006 MCULE-2810227855 PubChem-110265473
 30 33 0 0 0
SMALL
GASTEIGER

@<TRIPOS>ATOM
      1 C          11.0297   38.2098    9.9178 C.3     1  UNL1        0.0725
      2 C          12.0269   37.0606    9.7519 C.3     1  UNL1        0.0178
      3 C          13.2417   37.2788   10.6581 C.3     1  UNL1        0.0087
      4 C          13.6731   38.7512   10.7116 C.3     1  UNL1        0.0563
      5 C          13.0676   39.5704    9.5666 C.3     1  UNL1        0.0784
      6 N          11.5923   39.5257    9.5525 N.3     1  UNL1       -0.2647
      7 C          15.1618   38.8810   10.7208 C.ar    1  UNL1        0.0614
      8 C          17.0924   40.0840   10.0126 C.ar    1  UNL1        0.1328
      9 C          17.9214   39.1359   10.6284 C.ar    1  UNL1        0.0344
     10 C          17.3525   38.0528   11.2974 C.ar    1  UNL1        0.0041
     11 C          15.9659   37.9185   11.3460 C.ar    1  UNL1        0.0149
     12 N          15.7418   39.9296   10.0758 N.ar    1  UNL1       -0.2348
     13 N          17.6298   41.2056    9.2967 N.pl3   1  UNL1       -0.2834
     14 H          18.5970   41.3632    9.3917 H       1  UNL1        0.1550
     15 C          16.9128   42.1226    8.4578 C.ar    1  UNL1        0.1332
     16 C          15.6620   41.7504    7.9574 C.ar    1  UNL1        0.0345
     17 C          14.9537   42.6411    7.1469 C.ar    1  UNL1        0.0045
     18 C          15.4952   43.8924    6.8479 C.ar    1  UNL1        0.0208
     19 C          16.7452   44.2340    7.3687 C.ar    1  UNL1        0.1003
     20 N          17.4200   43.3511    8.1539 N.ar    1  UNL1       -0.2290
     21 C          11.0823   40.4838   10.5306 C.3     1  UNL1        0.1587
     22 C           6.3394   40.0313    6.3612 C.3     1  UNL1        0.0001
     23 C           7.6832   40.6213    6.7296 C.3     1  UNL1        0.0034
     24 C           7.4792   41.8277    7.6443 C.3     1  UNL1        0.0216
     25 C           8.8340   42.4233    8.0187 C.3     1  UNL1        0.0934
     26 C           9.8826   40.1527    7.8354 C.3     1  UNL1        0.0934
     27 C           8.5299   39.5643    7.4343 C.3     1  UNL1        0.0216
     28 C          10.3399   41.5978    9.8552 C.2     1  UNL1        0.2420
     29 N           9.6777   41.3820    8.6010 N.am    1  UNL1       -0.2784
     30 O          10.2852   42.7266   10.4118 O.2     1  UNL1       -0.2734
@<TRIPOS>BOND
     1    22    23    1
     2    23    24    1
     3    24    25    1
     4    25    29    1
     5    26    29    1
     6    26    27    1
     7    27    23    1
     8    21    28    1
     9    21     6    1
    10     1     6    1
    11     1     2    1
    12     2     3    1
    13     3     4    1
    14     4     5    1
    15     4     7    1
    16     5     6    1
    17     8    12   ar
    18     8    13    1
    19     9    10   ar
    20    11     7   ar
    21    15    20   ar
    22    16    17   ar
    23    18    19   ar
    24    29    28   am
    25    13    15    1
    26    28    30    2
    27     7    12   ar
    28     8     9   ar
    29    10    11   ar
    30    15    16   ar
    31    17    18   ar
    32    19    20   ar
    33    13    14    1
@<TRIPOS>MOLECULE
Molport-020-293-006 MCULE-2810227855 PubChem-110265473
 30 33 0 0 0
SMALL
GASTEIGER

@<TRIPOS>ATOM
      1 C           9.8406   40.4158    8.8684 C.3     1  UNL1        0.0725
      2 C          10.4479   39.0140    8.9618 C.3     1  UNL1        0.0178
      3 C          11.4892   38.9617   10.0831 C.3     1  UNL1        0.0087
      4 C          12.3365   40.2400   10.1530 C.3     1  UNL1        0.0563
      5 C          12.2268   41.0740    8.8718 C.3     1  UNL1        0.0784
      6 N          10.8368   41.4624    8.5623 N.3     1  UNL1       -0.2647
      7 C          13.7662   39.9281   10.4563 C.ar    1  UNL1        0.0614
      8 C          16.0619   40.1927    9.8770 C.ar    1  UNL1        0.1328
      9 C          16.4337   39.3243   10.9127 C.ar    1  UNL1        0.0344
     10 C          15.4515   38.7586   11.7250 C.ar    1  UNL1        0.0041
     11 C          14.1088   39.0573   11.4995 C.ar    1  UNL1        0.0149
     12 N          14.7439   40.4681    9.6790 N.ar    1  UNL1       -0.2348
     13 N          17.0335   40.7852    9.0028 N.pl3   1  UNL1       -0.2834
     14 H          17.8761   40.2900    8.8847 H       1  UNL1        0.1550
     15 C          16.9121   42.0199    8.2819 C.ar    1  UNL1        0.1332
     16 C          15.7178   42.3017    7.6127 C.ar    1  UNL1        0.0345
     17 C          15.5886   43.5057    6.9157 C.ar    1  UNL1        0.0045
     18 C          16.6462   44.4165    6.8966 C.ar    1  UNL1        0.0208
     19 C          17.8235   44.1053    7.5801 C.ar    1  UNL1        0.1003
     20 N          17.9302   42.9262    8.2507 N.ar    1  UNL1       -0.2290
     21 C          10.4814   42.6262    9.3710 C.3     1  UNL1        0.1587
     22 C           4.2670   41.4301    9.1833 C.3     1  UNL1        0.0001
     23 C           5.4220   42.1641    9.8290 C.3     1  UNL1        0.0034
     24 C           6.1143   41.2456   10.8345 C.3     1  UNL1        0.0216
     25 C           7.2811   41.9837   11.4857 C.3     1  UNL1        0.0934
     26 C           7.5973   43.3294    9.3934 C.3     1  UNL1        0.0934
     27 C           6.4112   42.6075    8.7541 C.3     1  UNL1        0.0216
     28 C           9.5833   42.2373   10.5070 C.2     1  UNL1        0.2420
     29 N           8.1731   42.4939   10.4468 N.am    1  UNL1       -0.2784
     30 O          10.0776   41.6615   11.5125 O.2     1  UNL1       -0.2734
@<TRIPOS>BOND
     1    22    23    1
     2    23    24    1
     3    24    25    1
     4    25    29    1
     5    26    29    1
     6    26    27    1
     7    27    23    1
     8    21    28    1
     9    21     6    1
    10     1     6    1
    11     1     2    1
    12     2     3    1
    13     3     4    1
    14     4     5    1
    15     4     7    1
    16     5     6    1
    17     8    12   ar
    18     8    13    1
    19     9    10   ar
    20    11     7   ar
    21    15    20   ar
    22    16    17   ar
    23    18    19   ar
    24    29    28   am
    25    13    15    1
    26    28    30    2
    27     7    12   ar
    28     8     9   ar
    29    10    11   ar
    30    15    16   ar
    31    17    18   ar
    32    19    20   ar
    33    13    14    1
@<TRIPOS>MOLECULE
Molport-020-293-006 MCULE-2810227855 PubChem-110265473
 30 33 0 0 0
SMALL
GASTEIGER

@<TRIPOS>ATOM
      1 C          11.3975   40.8016   11.4027 C.3     1  UNL1        0.0725
      2 C          10.0049   41.3499   11.7229 C.3     1  UNL1        0.0178
      3 C           9.0203   40.9754   10.6117 C.3     1  UNL1        0.0087
      4 C           9.6507   41.0742    9.2153 C.3     1  UNL1        0.0563
      5 C          10.9476   41.8906    9.2258 C.3     1  UNL1        0.0784
      6 N          11.9603   41.3393   10.1474 N.3     1  UNL1       -0.2647
      7 C           8.6850   41.6342    8.2218 C.ar    1  UNL1        0.0614
      8 C           6.4635   42.3468    7.7392 C.ar    1  UNL1        0.1328
      9 C           6.8216   42.5942    6.4066 C.ar    1  UNL1        0.0344
     10 C           8.1305   42.3571    5.9885 C.ar    1  UNL1        0.0041
     11 C           9.0713   41.8731    6.8960 C.ar    1  UNL1        0.0149
     12 N           7.4017   41.8752    8.6049 N.ar    1  UNL1       -0.2348
     13 N           5.1255   42.5574    8.2132 N.pl3   1  UNL1       -0.2834
     14 H           4.5344   43.0906    7.6339 H       1  UNL1        0.1550
     15 C           4.5542   42.0764    9.4384 C.ar    1  UNL1        0.1332
     16 C           3.3501   42.6253    9.8884 C.ar    1  UNL1        0.0345
     17 C           2.7828   42.1563   11.0760 C.ar    1  UNL1        0.0045
     18 C           3.4169   41.1444   11.7988 C.ar    1  UNL1        0.0208
     19 C           4.6163   40.6150   11.3178 C.ar    1  UNL1        0.1003
     20 N           5.1535   41.0874   10.1604 N.ar    1  UNL1       -0.2290
     21 C          12.6438   40.2294    9.4874 C.3     1  UNL1        0.1587
     22 C          15.9628   44.7425    6.5376 C.3     1  UNL1        0.0001
     23 C          15.7667   43.2730    6.8406 C.3     1  UNL1        0.0034
     24 C          16.3978   42.9401    8.1914 C.3     1  UNL1        0.0216
     25 C          16.1993   41.4583    8.4998 C.3     1  UNL1        0.0934
     26 C          14.0589   41.4732    7.1931 C.3     1  UNL1        0.0934
     27 C          14.2747   42.9502    6.8635 C.3     1  UNL1        0.0216
     28 C          14.1294   40.4333    9.4933 C.2     1  UNL1        0.2420
     29 N          14.7770   41.1324    8.4209 N.am    1  UNL1       -0.2784
     30 O          14.8057   40.0005   10.4639 O.2     1  UNL1       -0.2734
@<TRIPOS>BOND
     1    22    23    1
     2    23    24    1
     3    24    25    1
     4    25    29    1
     5    26    29    1
     6    26    27    1
     7    27    23    1
     8    21    28    1
     9    21     6    1
    10     1     6    1
    11     1     2    1
    12     2     3    1
    13     3     4    1
    14     4     5    1
    15     4     7    1
    16     5     6    1
    17     8    12   ar
    18     8    13    1
    19     9    10   ar
    20    11     7   ar
    21    15    20   ar
    22    16    17   ar
    23    18    19   ar
    24    29    28   am
    25    13    15    1
    26    28    30    2
    27     7    12   ar
    28     8     9   ar
    29    10    11   ar
    30    15    16   ar
    31    17    18   ar
    32    19    20   ar
    33    13    14    1
@<TRIPOS>MOLECULE
Molport-020-293-006 MCULE-2810227855 PubChem-110265473
 30 33 0 0 0
SMALL
GASTEIGER

@<TRIPOS>ATOM
      1 C           9.0430   40.9466    7.4988 C.3     1  UNL1        0.0725
      2 C          10.0231   39.8714    7.0236 C.3     1  UNL1        0.0178
      3 C          10.7354   39.2376    8.2218 C.3     1  UNL1        0.0087
      4 C          11.0939   40.2694    9.3005 C.3     1  UNL1        0.0563
      5 C          11.0281   41.7051    8.7682 C.3     1  UNL1        0.0784
      6 N           9.6994   42.0515    8.2268 N.3     1  UNL1       -0.2647
      7 C          12.4363   39.9901    9.8947 C.ar    1  UNL1        0.0614
      8 C          14.8044   40.1900    9.7273 C.ar    1  UNL1        0.1328
      9 C          14.9610   39.4355   10.8984 C.ar    1  UNL1        0.0344
     10 C          13.8344   38.9598   11.5684 C.ar    1  UNL1        0.0041
     11 C          12.5627   39.2341   11.0679 C.ar    1  UNL1        0.0149
     12 N          13.5516   40.4440    9.2606 N.ar    1  UNL1       -0.2348
     13 N          15.9326   40.6859    8.9920 N.pl3   1  UNL1       -0.2834
     14 H          16.7306   40.1097    8.9729 H       1  UNL1        0.1550
     15 C          16.0256   41.9291    8.2816 C.ar    1  UNL1        0.1332
     16 C          15.0102   42.2783    7.3869 C.ar    1  UNL1        0.0345
     17 C          15.0891   43.4912    6.6978 C.ar    1  UNL1        0.0045
     18 C          16.1736   44.3438    6.9102 C.ar    1  UNL1        0.0208
     19 C          17.1680   43.9661    7.8150 C.ar    1  UNL1        0.1003
     20 N          17.0738   42.7794    8.4741 N.ar    1  UNL1       -0.2290
     21 C           8.8157   42.4037    9.3358 C.3     1  UNL1        0.1587
     22 C           2.6202   41.6905   10.4273 C.3     1  UNL1        0.0001
     23 C           3.7381   41.9249    9.4349 C.3     1  UNL1        0.0034
     24 C           4.1138   43.4057    9.4273 C.3     1  UNL1        0.0216
     25 C           5.2429   43.6439    8.4280 C.3     1  UNL1        0.0934
     26 C           6.0962   41.3219    8.8387 C.3     1  UNL1        0.0934
     27 C           4.9485   41.0773    9.8183 C.3     1  UNL1        0.0216
     28 C           7.6912   43.2794    8.8697 C.2     1  UNL1        0.2420
     29 N           6.3616   42.7568    8.7390 N.am    1  UNL1       -0.2784
     30 O           7.9214   44.4907    8.6116 O.2     1  UNL1       -0.2734
@<TRIPOS>BOND
     1    22    23    1
     2    23    24    1
     3    24    25    1
     4    25    29    1
     5    26    29    1
     6    26    27    1
     7    27    23    1
     8    21    28    1
     9    21     6    1
    10     1     6    1
    11     1     2    1
    12     2     3    1
    13     3     4    1
    14     4     5    1
    15     4     7    1
    16     5     6    1
    17     8    12   ar
    18     8    13    1
    19     9    10   ar
    20    11     7   ar
    21    15    20   ar
    22    16    17   ar
    23    18    19   ar
    24    29    28   am
    25    13    15    1
    26    28    30    2
    27     7    12   ar
    28     8     9   ar
    29    10    11   ar
    30    15    16   ar
    31    17    18   ar
    32    19    20   ar
    33    13    14    1
@<TRIPOS>MOLECULE
Molport-020-293-006 MCULE-2810227855 PubChem-110265473
 30 33 0 0 0
SMALL
GASTEIGER

@<TRIPOS>ATOM
      1 C           9.0938   42.3752    9.3003 C.3     1  UNL1        0.0725
      2 C          10.1767   43.1138   10.0905 C.3     1  UNL1        0.0178
      3 C          11.5665   42.6630    9.6326 C.3     1  UNL1        0.0087
      4 C          11.6276   41.1553    9.3500 C.3     1  UNL1        0.0563
      5 C          10.4395   40.4062    9.9633 C.3     1  UNL1        0.0784
      6 N           9.1384   40.9101    9.4815 N.3     1  UNL1       -0.2647
      7 C          12.9187   40.5666    9.8188 C.ar    1  UNL1        0.0614
      8 C          15.2876   40.4476    9.5951 C.ar    1  UNL1        0.1328
      9 C          15.3411   39.4548   10.5833 C.ar    1  UNL1        0.0344
     10 C          14.1631   39.0221   11.1911 C.ar    1  UNL1        0.0041
     11 C          12.9422   39.5762   10.8100 C.ar    1  UNL1        0.0149
     12 N          14.0826   40.9725    9.2422 N.ar    1  UNL1       -0.2348
     13 N          16.4695   40.9130    8.9273 N.pl3   1  UNL1       -0.2834
     14 H          17.2722   40.3496    9.0142 H       1  UNL1        0.1550
     15 C          16.6102   42.1089    8.1471 C.ar    1  UNL1        0.1332
     16 C          17.7779   42.8672    8.2700 C.ar    1  UNL1        0.0345
     17 C          17.9263   44.0283    7.5072 C.ar    1  UNL1        0.0045
     18 C          16.9145   44.4186    6.6284 C.ar    1  UNL1        0.0208
     19 C          15.7631   43.6349    6.5266 C.ar    1  UNL1        0.1003
     20 N          15.6369   42.5090    7.2803 N.ar    1  UNL1       -0.2290
     21 C           8.8588   40.3192    8.1748 C.3     1  UNL1        0.1587
     22 C           4.2040   44.5877    8.6187 C.3     1  UNL1        0.0001
     23 C           4.9003   43.5158    7.8091 C.3     1  UNL1        0.0034
     24 C           6.1124   44.1166    7.0993 C.3     1  UNL1        0.0216
     25 C           6.8174   43.0361    6.2833 C.3     1  UNL1        0.0934
     26 C           6.0680   41.3019    7.9323 C.3     1  UNL1        0.0934
     27 C           5.3402   42.3822    8.7323 C.3     1  UNL1        0.0216
     28 C           8.4772   41.3732    7.1789 C.2     1  UNL1        0.2420
     29 N           7.1465   41.9086    7.1526 N.am    1  UNL1       -0.2784
     30 O           9.3460   41.8018    6.3737 O.2     1  UNL1       -0.2734
@<TRIPOS>BOND
     1    22    23    1
     2    23    24    1
     3    24    25    1
     4    25    29    1
     5    26    29    1
     6    26    27    1
     7    27    23    1
     8    21    28    1
     9    21     6    1
    10     1     6    1
    11     1     2    1
    12     2     3    1
    13     3     4    1
    14     4     5    1
    15     4     7    1
    16     5     6    1
    17     8    12   ar
    18     8    13    1
    19     9    10   ar
    20    11     7   ar
    21    15    20   ar
    22    16    17   ar
    23    18    19   ar
    24    29    28   am
    25    13    15    1
    26    28    30    2
    27     7    12   ar
    28     8     9   ar
    29    10    11   ar
    30    15    16   ar
    31    17    18   ar
    32    19    20   ar
    33    13    14    1
@<TRIPOS>MOLECULE
Molport-020-293-006 MCULE-2810227855 PubChem-110265473
 30 33 0 0 0
SMALL
GASTEIGER

@<TRIPOS>ATOM
      1 C          10.1511   41.0376    7.2021 C.3     1  UNL1        0.0725
      2 C          10.9362   41.4800    5.9650 C.3     1  UNL1        0.0178
      3 C          12.4158   41.1172    6.1194 C.3     1  UNL1        0.0087
      4 C          12.9255   41.3410    7.5501 C.3     1  UNL1        0.0563
      5 C          11.9813   42.2318    8.3648 C.3     1  UNL1        0.0784
      6 N          10.6123   41.6858    8.4465 N.3     1  UNL1       -0.2647
      7 C          14.3102   41.9030    7.5516 C.ar    1  UNL1        0.0614
      8 C          16.5092   41.8628    8.4675 C.ar    1  UNL1        0.1328
      9 C          16.8744   42.9524    7.6646 C.ar    1  UNL1        0.0344
     10 C          15.9385   43.5145    6.7970 C.ar    1  UNL1        0.0041
     11 C          14.6475   42.9922    6.7369 C.ar    1  UNL1        0.0149
     12 N          15.2424   41.3718    8.3887 N.ar    1  UNL1       -0.2348
     13 N          17.4303   41.2617    9.3891 N.pl3   1  UNL1       -0.2834
     14 H          18.1798   41.8249    9.6895 H       1  UNL1        0.1550
     15 C          17.3793   39.9300    9.9211 C.ar    1  UNL1        0.1332
     16 C          16.2655   39.5393   10.6696 C.ar    1  UNL1        0.0345
     17 C          16.2042   38.2416   11.1837 C.ar    1  UNL1        0.0045
     18 C          17.2485   37.3471   10.9433 C.ar    1  UNL1        0.0208
     19 C          18.3442   37.7689   10.1872 C.ar    1  UNL1        0.1003
     20 N          18.3857   39.0378    9.6977 N.ar    1  UNL1       -0.2290
     21 C          10.5745   40.6627    9.4889 C.3     1  UNL1        0.1587
     22 C           4.2862   40.9258   10.1763 C.3     1  UNL1        0.0001
     23 C           5.6268   41.6196   10.2804 C.3     1  UNL1        0.0034
     24 C           6.2952   41.2463   11.6024 C.3     1  UNL1        0.0216
     25 C           7.6489   41.9439   11.7085 C.3     1  UNL1        0.0934
     26 C           7.8792   41.8760    9.2123 C.3     1  UNL1        0.0934
     27 C           6.5111   41.2022    9.1079 C.3     1  UNL1        0.0216
     28 C           9.7969   41.1374   10.6799 C.2     1  UNL1        0.2420
     29 N           8.4544   41.6215   10.5328 N.am    1  UNL1       -0.2784
     30 O          10.3286   41.0883   11.8209 O.2     1  UNL1       -0.2734
@<TRIPOS>BOND
     1    22    23    1
     2    23    24    1
     3    24    25    1
     4    25    29    1
     5    26    29    1
     6    26    27    1
     7    27    23    1
     8    21    28    1
     9    21     6    1
    10     1     6    1
    11     1     2    1
    12     2     3    1
    13     3     4    1
    14     4     5    1
    15     4     7    1
    16     5     6    1
    17     8    12   ar
    18     8    13    1
    19     9    10   ar
    20    11     7   ar
    21    15    20   ar
    22    16    17   ar
    23    18    19   ar
    24    29    28   am
    25    13    15    1
    26    28    30    2
    27     7    12   ar
    28     8     9   ar
    29    10    11   ar
    30    15    16   ar
    31    17    18   ar
    32    19    20   ar
    33    13    14    1
