@<TRIPOS>MOLECULE
MolPort-002-628-688 5499559 PubChem-1630919 ZINC000005499559 ZINC05499559
 25 27 0 0 0
SMALL
GASTEIGER

@<TRIPOS>ATOM
      1 C          12.4035   42.1435    6.4060 C.ar    1  UNL1        0.1568
      2 C          13.1688   41.4582    7.3358 C.ar    1  UNL1        0.0689
      3 C          12.8996   40.4599    8.2668 C.ar    1  UNL1        0.0074
      4 C          13.9627   40.0546    9.0919 C.ar    1  UNL1        0.0176
      5 C          13.7739   39.0477   10.0409 C.ar    1  UNL1       -0.0028
      6 C          14.8357   38.6515   10.8601 C.ar    1  UNL1       -0.0218
      7 C          14.6317   37.5791   11.8682 C.3     1  UNL1        0.0310
      8 C          16.0889   39.2612   10.7353 C.ar    1  UNL1       -0.0027
      9 C          16.2925   40.2722    9.7908 C.ar    1  UNL1        0.0188
     10 C          15.2424   40.6780    8.9638 C.ar    1  UNL1        0.0829
     11 C          14.4011   42.0384    7.2528 C.ar    1  UNL1        0.1621
     12 N          14.3880   43.0233    6.3411 N.ar    1  UNL1       -0.2329
     13 N          13.1642   43.1033    5.8245 N.ar    1  UNL1       -0.1527
     14 N          15.4390   41.6720    8.0465 N.ar    1  UNL1       -0.2268
     15 C          10.3667   40.7928    5.6735 C.2     1  UNL1        0.2272
     16 N          11.0056   41.9878    6.1330 N.am    1  UNL1       -0.2679
     17 O          11.0365   39.8479    5.1796 O.2     1  UNL1       -0.2747
     18 H          10.4320   42.7754    6.2747 H       1  UNL1        0.1563
     19 C           8.8818   40.7049    5.6919 C.3     1  UNL1        0.0854
     20 C           8.4319   39.8162    6.8343 C.3     1  UNL1        0.0096
     21 C           7.7098   40.6524    7.8694 C.3     1  UNL1        0.0005
     22 C          15.5155   43.8852    5.9968 C.3     1  UNL1        0.1292
     23 C          16.2782   44.3390    7.2346 C.3     1  UNL1        0.0264
     24 C          18.0613   43.6062    5.6543 C.3     1  UNL1        0.0001
     25 C          17.7651   44.0870    7.0625 C.3     1  UNL1        0.0021
@<TRIPOS>BOND
     1    24    25    1
     2    25    23    1
     3    23    22    1
     4    22    12    1
     5     1    16    1
     6     1     2   ar
     7    19    15    1
     8    19    20    1
     9    20    21    1
    10     3     4   ar
    11     5     6   ar
    12     7     6    1
    13     8     9   ar
    14    10    14   ar
    15    10     4   ar
    16    11    12   ar
    17    11     2   ar
    18    12    13   ar
    19    16    15   am
    20     1    13   ar
    21    15    17    2
    22     2     3   ar
    23     4     5   ar
    24     6     8   ar
    25     9    10   ar
    26    11    14   ar
    27    16    18    1
@<TRIPOS>MOLECULE
MolPort-002-628-688 5499559 PubChem-1630919 ZINC000005499559 ZINC05499559
 25 27 0 0 0
SMALL
GASTEIGER

@<TRIPOS>ATOM
      1 C           9.5443   36.8931    3.1281 C.ar    1  UNL1        0.1568
      2 C          10.7718   36.2935    3.3598 C.ar    1  UNL1        0.0689
      3 C          11.2330   34.9815    3.3204 C.ar    1  UNL1        0.0074
      4 C          12.5725   34.7656    3.6873 C.ar    1  UNL1        0.0176
      5 C          13.1121   33.4780    3.6589 C.ar    1  UNL1       -0.0028
      6 C          14.4450   33.2705    4.0278 C.ar    1  UNL1       -0.0218
      7 C          15.0165   31.8993    3.9956 C.3     1  UNL1        0.0310
      8 C          15.2424   34.3484    4.4281 C.ar    1  UNL1       -0.0027
      9 C          14.7152   35.6433    4.4632 C.ar    1  UNL1        0.0188
     10 C          13.3862   35.8672    4.0960 C.ar    1  UNL1        0.0829
     11 C          11.5761   37.3172    3.7686 C.ar    1  UNL1        0.1621
     12 N          10.8833   38.4663    3.7976 N.ar    1  UNL1       -0.2329
     13 N           9.6330   38.2145    3.4177 N.ar    1  UNL1       -0.1527
     14 N          12.8685   37.1313    4.1385 N.ar    1  UNL1       -0.2268
     15 C           7.2471   36.8695    2.0181 C.2     1  UNL1        0.2272
     16 N           8.3154   36.2608    2.7502 N.am    1  UNL1       -0.2679
     17 O           7.1721   38.1208    1.9002 O.2     1  UNL1       -0.2747
     18 H           8.1949   35.3213    3.0187 H       1  UNL1        0.1563
     19 C           6.1581   36.0168    1.4703 C.3     1  UNL1        0.0854
     20 C           4.9810   36.8811    1.0645 C.3     1  UNL1        0.0096
     21 C           3.7035   36.0757    1.1712 C.3     1  UNL1        0.0005
     22 C          11.4025   39.7680    4.2088 C.3     1  UNL1        0.1292
     23 C          10.3608   40.5761    4.9714 C.3     1  UNL1        0.0264
     24 C          11.8419   39.9788    6.8855 C.3     1  UNL1        0.0001
     25 C          10.9198   41.0352    6.3060 C.3     1  UNL1        0.0021
@<TRIPOS>BOND
     1    24    25    1
     2    25    23    1
     3    23    22    1
     4    22    12    1
     5     1    16    1
     6     1     2   ar
     7    19    15    1
     8    19    20    1
     9    20    21    1
    10     3     4   ar
    11     5     6   ar
    12     7     6    1
    13     8     9   ar
    14    10    14   ar
    15    10     4   ar
    16    11    12   ar
    17    11     2   ar
    18    12    13   ar
    19    16    15   am
    20     1    13   ar
    21    15    17    2
    22     2     3   ar
    23     4     5   ar
    24     6     8   ar
    25     9    10   ar
    26    11    14   ar
    27    16    18    1
@<TRIPOS>MOLECULE
MolPort-002-628-688 5499559 PubChem-1630919 ZINC000005499559 ZINC05499559
 25 27 0 0 0
SMALL
GASTEIGER

@<TRIPOS>ATOM
      1 C          11.9934   41.9452    6.9758 C.ar    1  UNL1        0.1568
      2 C          12.9960   41.3849    7.7509 C.ar    1  UNL1        0.0689
      3 C          13.0119   40.4989    8.8236 C.ar    1  UNL1        0.0074
      4 C          14.2641   40.2088    9.3919 C.ar    1  UNL1        0.0176
      5 C          14.3626   39.3175   10.4624 C.ar    1  UNL1       -0.0028
      6 C          15.6117   39.0357   11.0245 C.ar    1  UNL1       -0.0218
      7 C          15.7133   38.0861   12.1628 C.3     1  UNL1        0.0310
      8 C          16.7661   39.6448   10.5202 C.ar    1  UNL1       -0.0027
      9 C          16.6829   40.5409    9.4498 C.ar    1  UNL1        0.0188
     10 C          15.4428   40.8315    8.8763 C.ar    1  UNL1        0.0829
     11 C          14.1419   41.9694    7.2954 C.ar    1  UNL1        0.1621
     12 N          13.8583   42.8402    6.3142 N.ar    1  UNL1       -0.2329
     13 N          12.5419   42.8411    6.1189 N.ar    1  UNL1       -0.1527
     14 N          15.3602   41.7137    7.8357 N.ar    1  UNL1       -0.2268
     15 C           9.7457   42.1801    8.1599 C.2     1  UNL1        0.2272
     16 N          10.5799   41.7382    7.0846 N.am    1  UNL1       -0.2679
     17 O          10.2414   42.5356    9.2614 O.2     1  UNL1       -0.2747
     18 H          10.1423   41.2467    6.3522 H       1  UNL1        0.1563
     19 C           8.2669   42.1279    8.0064 C.3     1  UNL1        0.0854
     20 C           7.9011   42.1211    6.5355 C.3     1  UNL1        0.0096
     21 C           6.9043   43.2264    6.2586 C.3     1  UNL1        0.0005
     22 C          14.8252   43.6721    5.6031 C.3     1  UNL1        0.1292
     23 C          15.7524   44.4063    6.5629 C.3     1  UNL1        0.0264
     24 C          18.0067   44.0066    7.5488 C.3     1  UNL1        0.0001
     25 C          17.2011   44.0656    6.2644 C.3     1  UNL1        0.0021
@<TRIPOS>BOND
     1    24    25    1
     2    25    23    1
     3    23    22    1
     4    22    12    1
     5     1    16    1
     6     1     2   ar
     7    19    15    1
     8    19    20    1
     9    20    21    1
    10     3     4   ar
    11     5     6   ar
    12     7     6    1
    13     8     9   ar
    14    10    14   ar
    15    10     4   ar
    16    11    12   ar
    17    11     2   ar
    18    12    13   ar
    19    16    15   am
    20     1    13   ar
    21    15    17    2
    22     2     3   ar
    23     4     5   ar
    24     6     8   ar
    25     9    10   ar
    26    11    14   ar
    27    16    18    1
@<TRIPOS>MOLECULE
MolPort-002-628-688 5499559 PubChem-1630919 ZINC000005499559 ZINC05499559
 25 27 0 0 0
SMALL
GASTEIGER

@<TRIPOS>ATOM
      1 C          11.9470   39.4000    8.2498 C.ar    1  UNL1        0.1568
      2 C          12.8679   40.3587    7.8591 C.ar    1  UNL1        0.0689
      3 C          14.0955   40.7840    8.3569 C.ar    1  UNL1        0.0074
      4 C          14.7160   41.8556    7.6922 C.ar    1  UNL1        0.0176
      5 C          15.9566   42.3294    8.1241 C.ar    1  UNL1       -0.0028
      6 C          16.5668   43.3978    7.4593 C.ar    1  UNL1       -0.0218
      7 C          17.8873   43.8989    7.9208 C.3     1  UNL1        0.0310
      8 C          15.9386   43.9975    6.3621 C.ar    1  UNL1       -0.0027
      9 C          14.6953   43.5351    5.9193 C.ar    1  UNL1        0.0188
     10 C          14.0737   42.4677    6.5716 C.ar    1  UNL1        0.0829
     11 C          12.2803   40.9777    6.7943 C.ar    1  UNL1        0.1621
     12 N          11.0730   40.4417    6.5565 N.ar    1  UNL1       -0.2329
     13 N          10.8545   39.4811    7.4512 N.ar    1  UNL1       -0.1527
     14 N          12.8547   42.0212    6.1443 N.ar    1  UNL1       -0.2268
     15 C          13.0304   37.5153    9.5855 C.2     1  UNL1        0.2272
     16 N          12.0261   38.5118    9.3713 N.am    1  UNL1       -0.2679
     17 O          13.7727   37.1298    8.6443 O.2     1  UNL1       -0.2747
     18 H          11.3251   38.5948   10.0576 H       1  UNL1        0.1563
     19 C          13.1346   36.8571   10.9155 C.3     1  UNL1        0.0854
     20 C          14.4347   37.2532   11.5864 C.3     1  UNL1        0.0096
     21 C          14.4125   38.7355   11.8936 C.3     1  UNL1        0.0005
     22 C          10.1406   40.8625    5.5142 C.3     1  UNL1        0.1292
     23 C          10.3740   40.1104    4.2105 C.3     1  UNL1        0.0264
     24 C           9.8525   37.9319    3.1167 C.3     1  UNL1        0.0001
     25 C           9.3297   39.0233    4.0319 C.3     1  UNL1        0.0021
@<TRIPOS>BOND
     1    24    25    1
     2    25    23    1
     3    23    22    1
     4    22    12    1
     5     1    16    1
     6     1     2   ar
     7    19    15    1
     8    19    20    1
     9    20    21    1
    10     3     4   ar
    11     5     6   ar
    12     7     6    1
    13     8     9   ar
    14    10    14   ar
    15    10     4   ar
    16    11    12   ar
    17    11     2   ar
    18    12    13   ar
    19    16    15   am
    20     1    13   ar
    21    15    17    2
    22     2     3   ar
    23     4     5   ar
    24     6     8   ar
    25     9    10   ar
    26    11    14   ar
    27    16    18    1
@<TRIPOS>MOLECULE
MolPort-002-628-688 5499559 PubChem-1630919 ZINC000005499559 ZINC05499559
 25 27 0 0 0
SMALL
GASTEIGER

@<TRIPOS>ATOM
      1 C           5.2871   40.2120   12.3622 C.ar    1  UNL1        0.1568
      2 C           6.2855   40.9032   11.6949 C.ar    1  UNL1        0.0689
      3 C           7.6716   40.7945   11.6425 C.ar    1  UNL1        0.0074
      4 C           8.3568   41.7486   10.8708 C.ar    1  UNL1        0.0176
      5 C           9.7477   41.6965   10.7580 C.ar    1  UNL1       -0.0028
      6 C          10.4230   42.6507    9.9904 C.ar    1  UNL1       -0.0218
      7 C          11.9029   42.5918    9.8717 C.3     1  UNL1        0.0310
      8 C           9.7110   43.6611    9.3347 C.ar    1  UNL1       -0.0027
      9 C           8.3180   43.7272    9.4399 C.ar    1  UNL1        0.0188
     10 C           7.6288   42.7804   10.2014 C.ar    1  UNL1        0.0829
     11 C           5.6272   41.9110   11.0522 C.ar    1  UNL1        0.1621
     12 N           4.3133   41.8488   11.3187 N.ar    1  UNL1       -0.2329
     13 N           4.0962   40.8171   12.1308 N.ar    1  UNL1       -0.1527
     14 N           6.2683   42.8499   10.3113 N.ar    1  UNL1       -0.2268
     15 C           6.5860   38.8081   14.0510 C.2     1  UNL1        0.2272
     16 N           5.4340   39.1002   13.2540 N.am    1  UNL1       -0.2679
     17 O           7.6970   39.3484   13.8076 O.2     1  UNL1       -0.2747
     18 H           4.6724   38.4803   13.3249 H       1  UNL1        0.1563
     19 C           6.4919   37.7797   15.1217 C.3     1  UNL1        0.0854
     20 C           5.5529   36.6708   14.6905 C.3     1  UNL1        0.0096
     21 C           6.3584   35.4438   14.3191 C.3     1  UNL1        0.0005
     22 C           3.2964   42.7756   10.8291 C.3     1  UNL1        0.1292
     23 C           3.1286   42.6831    9.3181 C.3     1  UNL1        0.0264
     24 C           4.8632   43.8503    7.9606 C.3     1  UNL1        0.0001
     25 C           3.5244   43.9925    8.6602 C.3     1  UNL1        0.0021
@<TRIPOS>BOND
     1    24    25    1
     2    25    23    1
     3    23    22    1
     4    22    12    1
     5     1    16    1
     6     1     2   ar
     7    19    15    1
     8    19    20    1
     9    20    21    1
    10     3     4   ar
    11     5     6   ar
    12     7     6    1
    13     8     9   ar
    14    10    14   ar
    15    10     4   ar
    16    11    12   ar
    17    11     2   ar
    18    12    13   ar
    19    16    15   am
    20     1    13   ar
    21    15    17    2
    22     2     3   ar
    23     4     5   ar
    24     6     8   ar
    25     9    10   ar
    26    11    14   ar
    27    16    18    1
@<TRIPOS>MOLECULE
MolPort-002-628-688 5499559 PubChem-1630919 ZINC000005499559 ZINC05499559
 25 27 0 0 0
SMALL
GASTEIGER

@<TRIPOS>ATOM
      1 C          12.7997   42.3695    6.8408 C.ar    1  UNL1        0.1568
      2 C          12.7699   41.2574    7.6667 C.ar    1  UNL1        0.0689
      3 C          13.5557   40.8149    8.7262 C.ar    1  UNL1        0.0074
      4 C          13.2268   39.5686    9.2864 C.ar    1  UNL1        0.0176
      5 C          13.9603   39.0640   10.3622 C.ar    1  UNL1       -0.0028
      6 C          13.6289   37.8219   10.9128 C.ar    1  UNL1       -0.0218
      7 C          14.4108   37.2883   12.0582 C.3     1  UNL1        0.0310
      8 C          12.5649   37.0792   10.3891 C.ar    1  UNL1       -0.0027
      9 C          11.8225   37.5708    9.3107 C.ar    1  UNL1        0.0188
     10 C          12.1399   38.8106    8.7509 C.ar    1  UNL1        0.0829
     11 C          11.7483   40.4983    7.1747 C.ar    1  UNL1        0.1621
     12 N          11.1967   41.1000    6.1093 N.ar    1  UNL1       -0.2329
     13 N          11.8423   42.2428    5.8894 N.ar    1  UNL1       -0.1527
     14 N          11.4199   39.2873    7.6915 N.ar    1  UNL1       -0.2268
     15 C          15.1588   43.3411    6.8670 C.2     1  UNL1        0.2272
     16 N          13.7325   43.4568    6.8651 N.am    1  UNL1       -0.2679
     17 O          15.7207   42.2507    7.1513 O.2     1  UNL1       -0.2747
     18 H          13.3578   44.3670    6.8820 H       1  UNL1        0.1563
     19 C          15.9902   44.5503    6.6233 C.3     1  UNL1        0.0854
     20 C          17.4133   44.1411    6.2998 C.3     1  UNL1        0.0096
     21 C          18.2422   44.1545    7.5667 C.3     1  UNL1        0.0005
     22 C          10.0965   40.5752    5.3050 C.3     1  UNL1        0.1292
     23 C          10.5766   40.0756    3.9486 C.3     1  UNL1        0.0264
     24 C          10.0292   37.6868    3.4924 C.3     1  UNL1        0.0001
     25 C           9.5608   39.1225    3.3455 C.3     1  UNL1        0.0021
@<TRIPOS>BOND
     1    24    25    1
     2    25    23    1
     3    23    22    1
     4    22    12    1
     5     1    16    1
     6     1     2   ar
     7    19    15    1
     8    19    20    1
     9    20    21    1
    10     3     4   ar
    11     5     6   ar
    12     7     6    1
    13     8     9   ar
    14    10    14   ar
    15    10     4   ar
    16    11    12   ar
    17    11     2   ar
    18    12    13   ar
    19    16    15   am
    20     1    13   ar
    21    15    17    2
    22     2     3   ar
    23     4     5   ar
    24     6     8   ar
    25     9    10   ar
    26    11    14   ar
    27    16    18    1
@<TRIPOS>MOLECULE
MolPort-002-628-688 5499559 PubChem-1630919 ZINC000005499559 ZINC05499559
 25 27 0 0 0
SMALL
GASTEIGER

@<TRIPOS>ATOM
      1 C          13.4468   42.3775    7.1188 C.ar    1  UNL1        0.1568
      2 C          13.8070   41.5257    8.1506 C.ar    1  UNL1        0.0689
      3 C          15.0084   40.9614    8.5677 C.ar    1  UNL1        0.0074
      4 C          14.9520   40.0757    9.6575 C.ar    1  UNL1        0.0176
      5 C          16.1183   39.4806   10.1430 C.ar    1  UNL1       -0.0028
      6 C          16.0541   38.5983   11.2261 C.ar    1  UNL1       -0.0218
      7 C          17.2970   37.9676   11.7409 C.3     1  UNL1        0.0310
      8 C          14.8243   38.3062   11.8263 C.ar    1  UNL1       -0.0027
      9 C          13.6477   38.8931   11.3498 C.ar    1  UNL1        0.0188
     10 C          13.6954   39.7778   10.2700 C.ar    1  UNL1        0.0829
     11 C          12.6251   41.2060    8.7531 C.ar    1  UNL1        0.1621
     12 N          11.6064   41.8120    8.1236 N.ar    1  UNL1       -0.2329
     13 N          12.0990   42.5236    7.1126 N.ar    1  UNL1       -0.1527
     14 N          12.5446   40.3448    9.7987 N.ar    1  UNL1       -0.2268
     15 C          15.3749   43.8650    6.3575 C.2     1  UNL1        0.2272
     16 N          14.2961   42.9554    6.1200 N.am    1  UNL1       -0.2679
     17 O          15.4806   44.4735    7.4548 O.2     1  UNL1       -0.2747
     18 H          14.1214   42.7036    5.1844 H       1  UNL1        0.1563
     19 C          16.3305   44.1679    5.2584 C.3     1  UNL1        0.0854
     20 C          17.7054   43.6350    5.6090 C.3     1  UNL1        0.0096
     21 C          17.9966   43.9123    7.0686 C.3     1  UNL1        0.0005
     22 C          10.1925   41.6864    8.4670 C.3     1  UNL1        0.1292
     23 C           9.5653   40.4509    7.8346 C.3     1  UNL1        0.0264
     24 C           8.2017   39.5937    5.9320 C.3     1  UNL1        0.0001
     25 C           8.8265   40.8244    6.5623 C.3     1  UNL1        0.0021
@<TRIPOS>BOND
     1    24    25    1
     2    25    23    1
     3    23    22    1
     4    22    12    1
     5     1    16    1
     6     1     2   ar
     7    19    15    1
     8    19    20    1
     9    20    21    1
    10     3     4   ar
    11     5     6   ar
    12     7     6    1
    13     8     9   ar
    14    10    14   ar
    15    10     4   ar
    16    11    12   ar
    17    11     2   ar
    18    12    13   ar
    19    16    15   am
    20     1    13   ar
    21    15    17    2
    22     2     3   ar
    23     4     5   ar
    24     6     8   ar
    25     9    10   ar
    26    11    14   ar
    27    16    18    1
@<TRIPOS>MOLECULE
MolPort-002-628-688 5499559 PubChem-1630919 ZINC000005499559 ZINC05499559
 25 27 0 0 0
SMALL
GASTEIGER

@<TRIPOS>ATOM
      1 C          11.7797   39.4012    8.3636 C.ar    1  UNL1        0.1568
      2 C          12.6803   40.3502    7.9074 C.ar    1  UNL1        0.0689
      3 C          13.9467   40.7593    8.3131 C.ar    1  UNL1        0.0074
      4 C          14.5288   41.8256    7.6064 C.ar    1  UNL1        0.0176
      5 C          15.8037   42.2833    7.9456 C.ar    1  UNL1       -0.0028
      6 C          16.3754   43.3465    7.2395 C.ar    1  UNL1       -0.0218
      7 C          17.7327   43.8304    7.6022 C.3     1  UNL1        0.0310
      8 C          15.6744   43.9571    6.1937 C.ar    1  UNL1       -0.0027
      9 C          14.3960   43.5108    5.8438 C.ar    1  UNL1        0.0188
     10 C          13.8120   42.4488    6.5383 C.ar    1  UNL1        0.0829
     11 C          12.0224   40.9794    6.8909 C.ar    1  UNL1        0.1621
     12 N          10.7944   40.4586    6.7426 N.ar    1  UNL1       -0.2329
     13 N          10.6317   39.4978    7.6490 N.ar    1  UNL1       -0.1527
     14 N          12.5592   42.0182    6.2022 N.ar    1  UNL1       -0.2268
     15 C          12.9681   37.5355    9.6349 C.2     1  UNL1        0.2272
     16 N          11.9315   38.5086    9.4740 N.am    1  UNL1       -0.2679
     17 O          13.6754   37.1736    8.6580 O.2     1  UNL1       -0.2747
     18 H          11.2610   38.5706   10.1923 H       1  UNL1        0.1563
     19 C          13.1492   36.8722   10.9541 C.3     1  UNL1        0.0854
     20 C          14.4719   37.2906   11.5645 C.3     1  UNL1        0.0096
     21 C          14.4321   38.7687   11.8897 C.3     1  UNL1        0.0005
     22 C           9.7919   40.8937    5.7738 C.3     1  UNL1        0.1292
     23 C           8.7408   41.7915    6.4133 C.3     1  UNL1        0.0264
     24 C           6.7617   40.9185    7.6522 C.3     1  UNL1        0.0001
     25 C           7.3624   41.1697    6.2818 C.3     1  UNL1        0.0021
@<TRIPOS>BOND
     1    24    25    1
     2    25    23    1
     3    23    22    1
     4    22    12    1
     5     1    16    1
     6     1     2   ar
     7    19    15    1
     8    19    20    1
     9    20    21    1
    10     3     4   ar
    11     5     6   ar
    12     7     6    1
    13     8     9   ar
    14    10    14   ar
    15    10     4   ar
    16    11    12   ar
    17    11     2   ar
    18    12    13   ar
    19    16    15   am
    20     1    13   ar
    21    15    17    2
    22     2     3   ar
    23     4     5   ar
    24     6     8   ar
    25     9    10   ar
    26    11    14   ar
    27    16    18    1
@<TRIPOS>MOLECULE
MolPort-002-628-688 5499559 PubChem-1630919 ZINC000005499559 ZINC05499559
 25 27 0 0 0
SMALL
GASTEIGER

@<TRIPOS>ATOM
      1 C          13.1100   41.1806    8.6536 C.ar    1  UNL1        0.1568
      2 C          13.1938   39.8246    8.9259 C.ar    1  UNL1        0.0689
      3 C          14.0687   38.8115    8.5463 C.ar    1  UNL1        0.0074
      4 C          13.7754   37.5136    8.9988 C.ar    1  UNL1        0.0176
      5 C          14.6147   36.4467    8.6711 C.ar    1  UNL1       -0.0028
      6 C          14.3151   35.1576    9.1228 C.ar    1  UNL1       -0.0218
      7 C          15.2108   34.0246    8.7733 C.3     1  UNL1        0.0310
      8 C          13.1751   34.9298    9.9015 C.ar    1  UNL1       -0.0027
      9 C          12.3242   35.9881   10.2360 C.ar    1  UNL1        0.0188
     10 C          12.6107   37.2818    9.7940 C.ar    1  UNL1        0.0829
     11 C          12.0844   39.5611    9.6755 C.ar    1  UNL1        0.1621
     12 N          11.3617   40.6799    9.8408 N.ar    1  UNL1       -0.2329
     13 N          11.9764   41.6762    9.2079 N.ar    1  UNL1       -0.1527
     14 N          11.7746   38.3147   10.1136 N.ar    1  UNL1       -0.2268
     15 C          13.6819   42.4836    6.5359 C.2     1  UNL1        0.2272
     16 N          13.9843   41.9679    7.8360 N.am    1  UNL1       -0.2679
     17 O          12.7154   42.0314    5.8675 O.2     1  UNL1       -0.2747
     18 H          14.8748   42.1729    8.2023 H       1  UNL1        0.1563
     19 C          14.5798   43.5012    5.9267 C.3     1  UNL1        0.0854
     20 C          15.7745   43.7406    6.8281 C.3     1  UNL1        0.0096
     21 C          16.9741   44.1193    5.9856 C.3     1  UNL1        0.0005
     22 C          10.0968   40.7822   10.5636 C.3     1  UNL1        0.1292
     23 C          10.3070   41.1983   12.0136 C.3     1  UNL1        0.0264
     24 C           9.2606   41.1077   14.2743 C.3     1  UNL1        0.0001
     25 C           8.9987   41.1272   12.7799 C.3     1  UNL1        0.0021
@<TRIPOS>BOND
     1    24    25    1
     2    25    23    1
     3    23    22    1
     4    22    12    1
     5     1    16    1
     6     1     2   ar
     7    19    15    1
     8    19    20    1
     9    20    21    1
    10     3     4   ar
    11     5     6   ar
    12     7     6    1
    13     8     9   ar
    14    10    14   ar
    15    10     4   ar
    16    11    12   ar
    17    11     2   ar
    18    12    13   ar
    19    16    15   am
    20     1    13   ar
    21    15    17    2
    22     2     3   ar
    23     4     5   ar
    24     6     8   ar
    25     9    10   ar
    26    11    14   ar
    27    16    18    1
@<TRIPOS>MOLECULE
MolPort-002-628-688 5499559 PubChem-1630919 ZINC000005499559 ZINC05499559
 25 27 0 0 0
SMALL
GASTEIGER

@<TRIPOS>ATOM
      1 C          10.7543   41.3010    6.6503 C.ar    1  UNL1        0.1568
      2 C          11.2796   40.3020    7.4539 C.ar    1  UNL1        0.0689
      3 C          10.7343   39.2180    8.1348 C.ar    1  UNL1        0.0074
      4 C          11.6143   38.4459    8.9125 C.ar    1  UNL1        0.0176
      5 C          11.1442   37.3335    9.6135 C.ar    1  UNL1       -0.0028
      6 C          12.0252   36.5715   10.3873 C.ar    1  UNL1       -0.0218
      7 C          11.5220   35.3877   11.1313 C.3     1  UNL1        0.0310
      8 C          13.3783   36.9196   10.4649 C.ar    1  UNL1       -0.0027
      9 C          13.8632   38.0321    9.7699 C.ar    1  UNL1        0.0188
     10 C          12.9962   38.8023    8.9912 C.ar    1  UNL1        0.0829
     11 C          12.6024   40.6179    7.5649 C.ar    1  UNL1        0.1621
     12 N          12.8675   41.7439    6.8843 N.ar    1  UNL1       -0.2329
     13 N          11.7380   42.1770    6.3295 N.ar    1  UNL1       -0.1527
     14 N          13.4683   39.8945    8.3188 N.ar    1  UNL1       -0.2268
     15 C           8.3827   42.1491    7.0577 C.2     1  UNL1        0.2272
     16 N           9.3859   41.4964    6.2733 N.am    1  UNL1       -0.2679
     17 O           8.5499   42.3473    8.2898 O.2     1  UNL1       -0.2747
     18 H           9.1105   41.1498    5.3939 H       1  UNL1        0.1563
     19 C           7.0848   42.5124    6.4280 C.3     1  UNL1        0.0854
     20 C           6.7639   43.9666    6.7103 C.3     1  UNL1        0.0096
     21 C           5.5076   44.0519    7.5508 C.3     1  UNL1        0.0005
     22 C          14.1676   42.4031    6.7944 C.3     1  UNL1        0.1292
     23 C          14.1465   43.5611    5.8052 C.3     1  UNL1        0.0264
     24 C          16.2692   44.3519    6.8456 C.3     1  UNL1        0.0001
     25 C          15.5565   44.0561    5.5392 C.3     1  UNL1        0.0021
@<TRIPOS>BOND
     1    24    25    1
     2    25    23    1
     3    23    22    1
     4    22    12    1
     5     1    16    1
     6     1     2   ar
     7    19    15    1
     8    19    20    1
     9    20    21    1
    10     3     4   ar
    11     5     6   ar
    12     7     6    1
    13     8     9   ar
    14    10    14   ar
    15    10     4   ar
    16    11    12   ar
    17    11     2   ar
    18    12    13   ar
    19    16    15   am
    20     1    13   ar
    21    15    17    2
    22     2     3   ar
    23     4     5   ar
    24     6     8   ar
    25     9    10   ar
    26    11    14   ar
    27    16    18    1
