@<TRIPOS>MOLECULE
MolPort-001-806-690 CSSS00104793305 MCULE-2498389420 PubChem-2810090 ZINC000000119557 ZINC00119557
 23 25 0 0 0
SMALL
GASTEIGER

@<TRIPOS>ATOM
      1 C           5.6401   41.3117    9.1563 C.ar    1  UNL1        0.1725
      2 C           4.2518   41.2933    8.9436 C.ar    1  UNL1        0.0413
      3 C           3.3669   41.5611    9.9877 C.ar    1  UNL1        0.0180
      4 C           3.8525   41.8499   11.2676 C.ar    1  UNL1        0.0538
      5 C           5.2319   41.8734   11.4845 C.ar    1  UNL1        0.0547
      6 C           6.1362   41.6167   10.4477 C.ar    1  UNL1        0.1733
      7 C           1.5507   42.2773   12.3170 C.2     1  UNL1        0.2555
      8 O           0.9277   42.1702   11.2265 O.2     1  UNL1       -0.2693
      9 N           2.9764   42.1259   12.3688 N.am    1  UNL1       -0.2799
     10 H           3.3976   42.2217   13.2535 H       1  UNL1        0.1552
     11 C           0.8084   42.5606   13.5507 C.ar    1  UNL1        0.0831
     12 C           0.0034   41.6634   14.2360 C.ar    1  UNL1        0.0116
     13 C          -0.5772   42.2223   15.3838 C.ar    1  UNL1        0.0076
     14 C          -0.2378   43.5542   15.6118 C.ar    1  UNL1        0.0356
     15 S           0.7922   44.0249   14.3679 S.2     1  UNL1       -0.0819
     16 C           6.1320   40.2721    6.9597 C.3     1  UNL1        0.2526
     17 O           6.5180   41.0182    8.1064 O.3     1  UNL1       -0.4684
     18 O           7.5031   41.6681   10.7627 O.3     1  UNL1       -0.4761
     19 C           8.5179   42.1880    9.9122 C.3     1  UNL1        0.1660
     20 C           9.6313   41.1665    9.7601 C.3     1  UNL1        0.0435
     21 C          10.8999   41.8170   10.2749 C.3     1  UNL1        0.0038
     22 C          10.6247   43.3021   10.2891 C.3     1  UNL1        0.0038
     23 C           9.1406   43.4220   10.5395 C.3     1  UNL1        0.0435
@<TRIPOS>BOND
     1    16    17    1
     2     1    17    1
     3     2     3   ar
     4     4     9    1
     5     4     5   ar
     6     7    11    1
     7    11    15   ar
     8    12    13   ar
     9    14    15   ar
    10     6    18    1
    11     6     1   ar
    12    19    18    1
    13    19    20    1
    14    20    21    1
    15    21    22    1
    16    22    23    1
    17    23    19    1
    18     9     7   am
    19     1     2   ar
    20     3     4   ar
    21     7     8    2
    22    11    12   ar
    23    13    14   ar
    24     5     6   ar
    25     9    10    1
@<TRIPOS>MOLECULE
MolPort-001-806-690 CSSS00104793305 MCULE-2498389420 PubChem-2810090 ZINC000000119557 ZINC00119557
 23 25 0 0 0
SMALL
GASTEIGER

@<TRIPOS>ATOM
      1 C           9.3190   40.7995    6.2957 C.ar    1  UNL1        0.1725
      2 C          10.2652   40.9718    5.2721 C.ar    1  UNL1        0.0413
      3 C          11.5878   41.2983    5.5711 C.ar    1  UNL1        0.0180
      4 C          11.9907   41.4624    6.9008 C.ar    1  UNL1        0.0538
      5 C          11.0554   41.2887    7.9232 C.ar    1  UNL1        0.0547
      6 C           9.7260   40.9518    7.6441 C.ar    1  UNL1        0.1733
      7 C          14.0784   42.9508    6.8103 C.2     1  UNL1        0.2555
      8 O          13.5582   43.7971    6.0345 O.2     1  UNL1       -0.2693
      9 N          13.3392   41.8026    7.2502 N.am    1  UNL1       -0.2799
     10 H          13.8070   41.1830    7.8556 H       1  UNL1        0.1552
     11 C          15.4588   43.1417    7.2701 C.ar    1  UNL1        0.0831
     12 C          16.2645   44.2330    6.9833 C.ar    1  UNL1        0.0116
     13 C          17.5379   44.1348    7.5629 C.ar    1  UNL1        0.0076
     14 C          17.7455   42.9746    8.3058 C.ar    1  UNL1        0.0356
     15 S          16.3258   42.0754    8.2311 S.2     1  UNL1       -0.0819
     16 C           6.9673   40.3879    6.9648 C.3     1  UNL1        0.2526
     17 O           7.9892   40.4951    5.9826 O.3     1  UNL1       -0.4684
     18 O           8.8619   40.7941    8.7390 O.3     1  UNL1       -0.4761
     19 C           8.6529   41.7622    9.7601 C.3     1  UNL1        0.1660
     20 C           7.9554   42.9787    9.1772 C.3     1  UNL1        0.0435
     21 C           8.8726   44.1639    9.4043 C.3     1  UNL1        0.0038
     22 C           9.8417   43.7345   10.4804 C.3     1  UNL1        0.0038
     23 C           9.9869   42.2423   10.3025 C.3     1  UNL1        0.0435
@<TRIPOS>BOND
     1    16    17    1
     2     1    17    1
     3     2     3   ar
     4     4     9    1
     5     4     5   ar
     6     7    11    1
     7    11    15   ar
     8    12    13   ar
     9    14    15   ar
    10     6    18    1
    11     6     1   ar
    12    19    18    1
    13    19    20    1
    14    20    21    1
    15    21    22    1
    16    22    23    1
    17    23    19    1
    18     9     7   am
    19     1     2   ar
    20     3     4   ar
    21     7     8    2
    22    11    12   ar
    23    13    14   ar
    24     5     6   ar
    25     9    10    1
@<TRIPOS>MOLECULE
MolPort-001-806-690 CSSS00104793305 MCULE-2498389420 PubChem-2810090 ZINC000000119557 ZINC00119557
 23 25 0 0 0
SMALL
GASTEIGER

@<TRIPOS>ATOM
      1 C           8.7273   39.9308    5.6594 C.ar    1  UNL1        0.1725
      2 C           9.8137   39.5839    4.8394 C.ar    1  UNL1        0.0413
      3 C          11.0064   40.3048    4.8933 C.ar    1  UNL1        0.0180
      4 C          11.1362   41.3899    5.7668 C.ar    1  UNL1        0.0538
      5 C          10.0608   41.7373    6.5873 C.ar    1  UNL1        0.0547
      6 C           8.8592   41.0206    6.5547 C.ar    1  UNL1        0.1733
      7 C          13.4211   41.9726    6.7775 C.2     1  UNL1        0.2555
      8 O          13.3788   41.0571    7.6426 O.2     1  UNL1       -0.2693
      9 N          12.3433   42.1595    5.8491 N.am    1  UNL1       -0.2799
     10 H          12.4430   42.8933    5.2004 H       1  UNL1        0.1552
     11 C          14.5883   42.8601    6.7183 C.ar    1  UNL1        0.0831
     12 C          15.7666   42.6973    7.4308 C.ar    1  UNL1        0.0116
     13 C          16.7042   43.7065    7.1671 C.ar    1  UNL1        0.0076
     14 C          16.2768   44.6660    6.2517 C.ar    1  UNL1        0.0356
     15 S          14.7198   44.2416    5.7768 S.2     1  UNL1       -0.0819
     16 C           6.3112   39.6754    6.1540 C.3     1  UNL1        0.2526
     17 O           7.5272   39.2148    5.5798 O.3     1  UNL1       -0.4684
     18 O           7.8380   41.4430    7.4204 O.3     1  UNL1       -0.4761
     19 C           7.5564   42.7975    7.7511 C.3     1  UNL1        0.1660
     20 C           6.7573   42.8540    9.0412 C.3     1  UNL1        0.0435
     21 C           5.4435   43.5369    8.7167 C.3     1  UNL1        0.0038
     22 C           5.6663   44.2575    7.4081 C.3     1  UNL1        0.0038
     23 C           6.6913   43.4269    6.6741 C.3     1  UNL1        0.0435
@<TRIPOS>BOND
     1    16    17    1
     2     1    17    1
     3     2     3   ar
     4     4     9    1
     5     4     5   ar
     6     7    11    1
     7    11    15   ar
     8    12    13   ar
     9    14    15   ar
    10     6    18    1
    11     6     1   ar
    12    19    18    1
    13    19    20    1
    14    20    21    1
    15    21    22    1
    16    22    23    1
    17    23    19    1
    18     9     7   am
    19     1     2   ar
    20     3     4   ar
    21     7     8    2
    22    11    12   ar
    23    13    14   ar
    24     5     6   ar
    25     9    10    1
@<TRIPOS>MOLECULE
MolPort-001-806-690 CSSS00104793305 MCULE-2498389420 PubChem-2810090 ZINC000000119557 ZINC00119557
 23 25 0 0 0
SMALL
GASTEIGER

@<TRIPOS>ATOM
      1 C          13.4623   37.6446   10.6506 C.ar    1  UNL1        0.1725
      2 C          12.7077   38.8291   10.6701 C.ar    1  UNL1        0.0413
      3 C          13.1648   39.9764   10.0221 C.ar    1  UNL1        0.0180
      4 C          14.3881   39.9635    9.3434 C.ar    1  UNL1        0.0538
      5 C          15.1411   38.7877    9.3173 C.ar    1  UNL1        0.0547
      6 C          14.6953   37.6236    9.9533 C.ar    1  UNL1        0.1733
      7 C          14.3155   41.7802    7.5333 C.2     1  UNL1        0.2555
      8 O          13.2475   41.3560    7.0156 O.2     1  UNL1       -0.2693
      9 N          14.8956   41.1227    8.6689 N.am    1  UNL1       -0.2799
     10 H          15.7299   41.5079    9.0222 H       1  UNL1        0.1552
     11 C          14.9754   42.9624    6.9672 C.ar    1  UNL1        0.0831
     12 C          16.2667   43.3818    7.2486 C.ar    1  UNL1        0.0116
     13 C          16.6218   44.5481    6.5552 C.ar    1  UNL1        0.0076
     14 C          15.6217   45.0541    5.7276 C.ar    1  UNL1        0.0356
     15 S          14.2930   44.0323    5.8710 S.2     1  UNL1       -0.0819
     16 C          11.9564   35.6831   10.8305 C.3     1  UNL1        0.2526
     17 O          13.0049   36.5062   11.3243 O.3     1  UNL1       -0.4684
     18 O          15.5199   36.4908    9.8672 O.3     1  UNL1       -0.4761
     19 C          16.0852   35.9821    8.6650 C.3     1  UNL1        0.1660
     20 C          15.6099   34.5577    8.4385 C.3     1  UNL1        0.0435
     21 C          16.8458   33.6808    8.4028 C.3     1  UNL1        0.0038
     22 C          18.0063   34.6149    8.1534 C.3     1  UNL1        0.0038
     23 C          17.5972   35.9237    8.7852 C.3     1  UNL1        0.0435
@<TRIPOS>BOND
     1    16    17    1
     2     1    17    1
     3     2     3   ar
     4     4     9    1
     5     4     5   ar
     6     7    11    1
     7    11    15   ar
     8    12    13   ar
     9    14    15   ar
    10     6    18    1
    11     6     1   ar
    12    19    18    1
    13    19    20    1
    14    20    21    1
    15    21    22    1
    16    22    23    1
    17    23    19    1
    18     9     7   am
    19     1     2   ar
    20     3     4   ar
    21     7     8    2
    22    11    12   ar
    23    13    14   ar
    24     5     6   ar
    25     9    10    1
@<TRIPOS>MOLECULE
MolPort-001-806-690 CSSS00104793305 MCULE-2498389420 PubChem-2810090 ZINC000000119557 ZINC00119557
 23 25 0 0 0
SMALL
GASTEIGER

@<TRIPOS>ATOM
      1 C           8.8102   39.8623    5.8748 C.ar    1  UNL1        0.1725
      2 C           9.6511   39.8988    4.7502 C.ar    1  UNL1        0.0413
      3 C          10.8209   40.6581    4.7590 C.ar    1  UNL1        0.0180
      4 C          11.1724   41.3995    5.8922 C.ar    1  UNL1        0.0538
      5 C          10.3424   41.3642    7.0147 C.ar    1  UNL1        0.0547
      6 C           9.1694   40.6011    7.0289 C.ar    1  UNL1        0.1733
      7 C          13.5032   41.9904    6.7868 C.2     1  UNL1        0.2555
      8 O          13.5387   41.0295    7.6018 O.2     1  UNL1       -0.2693
      9 N          12.3636   42.1964    5.9400 N.am    1  UNL1       -0.2799
     10 H          12.4036   42.9660    5.3272 H       1  UNL1        0.1552
     11 C          14.6425   42.9113    6.7025 C.ar    1  UNL1        0.0831
     12 C          15.8333   42.7930    7.4030 C.ar    1  UNL1        0.0116
     13 C          16.7372   43.8262    7.1153 C.ar    1  UNL1        0.0076
     14 C          16.2708   44.7604    6.1930 C.ar    1  UNL1        0.0356
     15 S          14.7218   44.2837    5.7420 S.2     1  UNL1       -0.0819
     16 C           6.3535   39.6703    6.1485 C.3     1  UNL1        0.2526
     17 O           7.6268   39.1155    5.8461 O.3     1  UNL1       -0.4684
     18 O           8.4034   40.6259    8.2050 O.3     1  UNL1       -0.4761
     19 C           8.4786   41.6327    9.2071 C.3     1  UNL1        0.1660
     20 C           9.5521   41.2697   10.2180 C.3     1  UNL1        0.0435
     21 C           8.8686   41.1584   11.5663 C.3     1  UNL1        0.0038
     22 C           7.5496   41.8797   11.4202 C.3     1  UNL1        0.0038
     23 C           7.1682   41.7065    9.9697 C.3     1  UNL1        0.0435
@<TRIPOS>BOND
     1    16    17    1
     2     1    17    1
     3     2     3   ar
     4     4     9    1
     5     4     5   ar
     6     7    11    1
     7    11    15   ar
     8    12    13   ar
     9    14    15   ar
    10     6    18    1
    11     6     1   ar
    12    19    18    1
    13    19    20    1
    14    20    21    1
    15    21    22    1
    16    22    23    1
    17    23    19    1
    18     9     7   am
    19     1     2   ar
    20     3     4   ar
    21     7     8    2
    22    11    12   ar
    23    13    14   ar
    24     5     6   ar
    25     9    10    1
@<TRIPOS>MOLECULE
MolPort-001-806-690 CSSS00104793305 MCULE-2498389420 PubChem-2810090 ZINC000000119557 ZINC00119557
 23 25 0 0 0
SMALL
GASTEIGER

@<TRIPOS>ATOM
      1 C          11.5090   37.7059    9.3499 C.ar    1  UNL1        0.1725
      2 C          10.7012   38.8004    9.0004 C.ar    1  UNL1        0.0413
      3 C          11.2535   39.9309    8.3987 C.ar    1  UNL1        0.0180
      4 C          12.6265   39.9912    8.1369 C.ar    1  UNL1        0.0538
      5 C          13.4343   38.9046    8.4787 C.ar    1  UNL1        0.0547
      6 C          12.8976   37.7575    9.0744 C.ar    1  UNL1        0.1733
      7 C          14.5253   41.6874    7.8211 C.2     1  UNL1        0.2555
      8 O          15.2646   41.1672    8.6994 O.2     1  UNL1       -0.2693
      9 N          13.2341   41.1366    7.5244 N.am    1  UNL1       -0.2799
     10 H          12.7103   41.5931    6.8270 H       1  UNL1        0.1552
     11 C          14.9905   42.8728    7.0918 C.ar    1  UNL1        0.0831
     12 C          16.2571   43.4306    7.1765 C.ar    1  UNL1        0.0116
     13 C          16.4079   44.5615    6.3608 C.ar    1  UNL1        0.0076
     14 C          15.2707   44.9024    5.6316 C.ar    1  UNL1        0.0356
     15 S          14.0784   43.7795    6.0157 S.2     1  UNL1       -0.0819
     16 C          11.6451   35.8039   10.9347 C.3     1  UNL1        0.2526
     17 O          10.9474   36.5863    9.9747 O.3     1  UNL1       -0.4684
     18 O          13.7890   36.7161    9.3767 O.3     1  UNL1       -0.4761
     19 C          14.8446   36.7951   10.3270 C.3     1  UNL1        0.1660
     20 C          14.4280   37.6889   11.4818 C.3     1  UNL1        0.0435
     21 C          15.4206   38.8334   11.5339 C.3     1  UNL1        0.0038
     22 C          16.6222   38.3727   10.7431 C.3     1  UNL1        0.0038
     23 C          16.0658   37.4386    9.6955 C.3     1  UNL1        0.0435
@<TRIPOS>BOND
     1    16    17    1
     2     1    17    1
     3     2     3   ar
     4     4     9    1
     5     4     5   ar
     6     7    11    1
     7    11    15   ar
     8    12    13   ar
     9    14    15   ar
    10     6    18    1
    11     6     1   ar
    12    19    18    1
    13    19    20    1
    14    20    21    1
    15    21    22    1
    16    22    23    1
    17    23    19    1
    18     9     7   am
    19     1     2   ar
    20     3     4   ar
    21     7     8    2
    22    11    12   ar
    23    13    14   ar
    24     5     6   ar
    25     9    10    1
@<TRIPOS>MOLECULE
MolPort-001-806-690 CSSS00104793305 MCULE-2498389420 PubChem-2810090 ZINC000000119557 ZINC00119557
 23 25 0 0 0
SMALL
GASTEIGER

@<TRIPOS>ATOM
      1 C          17.5292   33.6825    6.1918 C.ar    1  UNL1        0.1725
      2 C          17.4733   33.8423    7.5861 C.ar    1  UNL1        0.0413
      3 C          16.5102   34.6637    8.1717 C.ar    1  UNL1        0.0180
      4 C          15.5845   35.3450    7.3740 C.ar    1  UNL1        0.0538
      5 C          15.6327   35.1872    5.9872 C.ar    1  UNL1        0.0547
      6 C          16.5854   34.3602    5.3814 C.ar    1  UNL1        0.1733
      7 C          14.7996   37.3450    8.7761 C.2     1  UNL1        0.2555
      8 O          15.9656   37.6982    9.0990 O.2     1  UNL1       -0.2693
      9 N          14.5820   36.2024    7.9362 N.am    1  UNL1       -0.2799
     10 H          13.6459   35.9840    7.7234 H       1  UNL1        0.1552
     11 C          13.6485   38.1123    9.2655 C.ar    1  UNL1        0.0831
     12 C          12.3947   37.5958    9.5548 C.ar    1  UNL1        0.0116
     13 C          11.4957   38.5735   10.0053 C.ar    1  UNL1        0.0076
     14 C          12.0285   39.8590   10.0746 C.ar    1  UNL1        0.0356
     15 S          13.6299   39.7615    9.5685 S.2     1  UNL1       -0.0819
     16 C          19.4237   32.0940    6.3795 C.3     1  UNL1        0.2526
     17 O          18.5150   32.8742    5.6138 O.3     1  UNL1       -0.4684
     18 O          16.5509   34.2622    3.9815 O.3     1  UNL1       -0.4761
     19 C          17.1156   35.2092    3.0827 C.3     1  UNL1        0.1660
     20 C          18.3610   34.6250    2.4394 C.3     1  UNL1        0.0435
     21 C          19.5152   35.5373    2.8044 C.3     1  UNL1        0.0038
     22 C          18.8879   36.8383    3.2463 C.3     1  UNL1        0.0038
     23 C          17.5564   36.4478    3.8414 C.3     1  UNL1        0.0435
@<TRIPOS>BOND
     1    16    17    1
     2     1    17    1
     3     2     3   ar
     4     4     9    1
     5     4     5   ar
     6     7    11    1
     7    11    15   ar
     8    12    13   ar
     9    14    15   ar
    10     6    18    1
    11     6     1   ar
    12    19    18    1
    13    19    20    1
    14    20    21    1
    15    21    22    1
    16    22    23    1
    17    23    19    1
    18     9     7   am
    19     1     2   ar
    20     3     4   ar
    21     7     8    2
    22    11    12   ar
    23    13    14   ar
    24     5     6   ar
    25     9    10    1
@<TRIPOS>MOLECULE
MolPort-001-806-690 CSSS00104793305 MCULE-2498389420 PubChem-2810090 ZINC000000119557 ZINC00119557
 23 25 0 0 0
SMALL
GASTEIGER

@<TRIPOS>ATOM
      1 C          15.6058   42.4080    7.4909 C.ar    1  UNL1        0.1725
      2 C          14.8748   43.2050    6.5946 C.ar    1  UNL1        0.0413
      3 C          13.5309   42.9373    6.3353 C.ar    1  UNL1        0.0180
      4 C          12.8908   41.8646    6.9652 C.ar    1  UNL1        0.0538
      5 C          13.6113   41.0709    7.8603 C.ar    1  UNL1        0.0547
      6 C          14.9578   41.3289    8.1409 C.ar    1  UNL1        0.1733
      7 C          10.4002   41.8448    7.5806 C.2     1  UNL1        0.2555
      8 O          10.5694   42.4354    8.6811 O.2     1  UNL1       -0.2693
      9 N          11.5123   41.5530    6.7224 N.am    1  UNL1       -0.2799
     10 H          11.3074   41.0901    5.8780 H       1  UNL1        0.1552
     11 C           9.0477   41.4496    7.1709 C.ar    1  UNL1        0.0831
     12 C           8.1672   42.2233    6.4300 C.ar    1  UNL1        0.0116
     13 C           6.9450   41.5776    6.1924 C.ar    1  UNL1        0.0076
     14 C           6.8519   40.2996    6.7394 C.ar    1  UNL1        0.0356
     15 S           8.3082   39.9857    7.5208 S.2     1  UNL1       -0.0819
     16 C          17.4174   43.8404    8.3933 C.3     1  UNL1        0.2526
     17 O          16.9603   42.6717    7.7255 O.3     1  UNL1       -0.4684
     18 O          15.5953   40.4784    9.0579 O.3     1  UNL1       -0.4761
     19 C          15.0549   39.2591    9.5523 C.3     1  UNL1        0.1660
     20 C          13.9579   39.5565   10.5595 C.3     1  UNL1        0.0435
     21 C          14.3814   38.9269   11.8717 C.3     1  UNL1        0.0038
     22 C          15.4477   37.9171   11.5187 C.3     1  UNL1        0.0038
     23 C          16.1257   38.4774   10.2917 C.3     1  UNL1        0.0435
@<TRIPOS>BOND
     1    16    17    1
     2     1    17    1
     3     2     3   ar
     4     4     9    1
     5     4     5   ar
     6     7    11    1
     7    11    15   ar
     8    12    13   ar
     9    14    15   ar
    10     6    18    1
    11     6     1   ar
    12    19    18    1
    13    19    20    1
    14    20    21    1
    15    21    22    1
    16    22    23    1
    17    23    19    1
    18     9     7   am
    19     1     2   ar
    20     3     4   ar
    21     7     8    2
    22    11    12   ar
    23    13    14   ar
    24     5     6   ar
    25     9    10    1
@<TRIPOS>MOLECULE
MolPort-001-806-690 CSSS00104793305 MCULE-2498389420 PubChem-2810090 ZINC000000119557 ZINC00119557
 23 25 0 0 0
SMALL
GASTEIGER

@<TRIPOS>ATOM
      1 C          14.8402   40.3335    9.4626 C.ar    1  UNL1        0.1725
      2 C          14.2478   39.7459   10.5925 C.ar    1  UNL1        0.0413
      3 C          12.8689   39.8127   10.7907 C.ar    1  UNL1        0.0180
      4 C          12.0540   40.4716    9.8638 C.ar    1  UNL1        0.0538
      5 C          12.6367   41.0546    8.7365 C.ar    1  UNL1        0.0547
      6 C          14.0171   40.9903    8.5150 C.ar    1  UNL1        0.1733
      7 C           9.8887   41.7314   10.4175 C.2     1  UNL1        0.2555
      8 O          10.4712   42.8251   10.6481 O.2     1  UNL1       -0.2693
      9 N          10.6332   40.5668   10.0331 N.am    1  UNL1       -0.2799
     10 H          10.1141   39.7468    9.8680 H       1  UNL1        0.1552
     11 C           8.4292   41.6472   10.5440 C.ar    1  UNL1        0.0831
     12 C           7.7282   41.4534   11.7246 C.ar    1  UNL1        0.0116
     13 C           6.3395   41.4163   11.5315 C.ar    1  UNL1        0.0076
     14 C           5.9367   41.5793   10.2077 C.ar    1  UNL1        0.0356
     15 S           7.3296   41.7696    9.2838 S.2     1  UNL1       -0.0819
     16 C          17.1120   39.7396   10.2590 C.3     1  UNL1        0.2526
     17 O          16.2278   40.2806    9.2863 O.3     1  UNL1       -0.4684
     18 O          14.5081   41.6021    7.3510 O.3     1  UNL1       -0.4761
     19 C          14.6675   43.0041    7.1707 C.3     1  UNL1        0.1660
     20 C          14.0728   43.4196    5.8365 C.3     1  UNL1        0.0435
     21 C          15.1960   44.0347    5.0255 C.3     1  UNL1        0.0038
     22 C          16.2790   44.3822    6.0193 C.3     1  UNL1        0.0038
     23 C          16.1428   43.3577    7.1198 C.3     1  UNL1        0.0435
@<TRIPOS>BOND
     1    16    17    1
     2     1    17    1
     3     2     3   ar
     4     4     9    1
     5     4     5   ar
     6     7    11    1
     7    11    15   ar
     8    12    13   ar
     9    14    15   ar
    10     6    18    1
    11     6     1   ar
    12    19    18    1
    13    19    20    1
    14    20    21    1
    15    21    22    1
    16    22    23    1
    17    23    19    1
    18     9     7   am
    19     1     2   ar
    20     3     4   ar
    21     7     8    2
    22    11    12   ar
    23    13    14   ar
    24     5     6   ar
    25     9    10    1
@<TRIPOS>MOLECULE
MolPort-001-806-690 CSSS00104793305 MCULE-2498389420 PubChem-2810090 ZINC000000119557 ZINC00119557
 23 25 0 0 0
SMALL
GASTEIGER

@<TRIPOS>ATOM
      1 C          15.0309   39.8950    9.1390 C.ar    1  UNL1        0.1725
      2 C          14.2487   38.7528    9.3763 C.ar    1  UNL1        0.0413
      3 C          12.9340   38.6808    8.9164 C.ar    1  UNL1        0.0180
      4 C          12.3732   39.7516    8.2120 C.ar    1  UNL1        0.0538
      5 C          13.1472   40.8885    7.9696 C.ar    1  UNL1        0.0547
      6 C          14.4712   40.9761    8.4146 C.ar    1  UNL1        0.1733
      7 C           9.8794   40.3435    8.3249 C.2     1  UNL1        0.2555
      8 O           9.9877   41.0086    9.3901 O.2     1  UNL1       -0.2693
      9 N          11.0243   39.7193    7.7266 N.am    1  UNL1       -0.2799
     10 H          10.8673   39.2158    6.8952 H       1  UNL1        0.1552
     11 C           8.5649   40.2050    7.6877 C.ar    1  UNL1        0.0831
     12 C           8.2515   39.3297    6.6589 C.ar    1  UNL1        0.0116
     13 C           6.9118   39.4243    6.2550 C.ar    1  UNL1        0.0076
     14 C           6.1631   40.3672    6.9561 C.ar    1  UNL1        0.0356
     15 S           7.1896   41.0795    8.0826 S.2     1  UNL1       -0.0819
     16 C          16.7923   39.2170   10.7469 C.3     1  UNL1        0.2526
     17 O          16.3414   39.9654    9.6257 O.3     1  UNL1       -0.4684
     18 O          15.1696   42.1572    8.1184 O.3     1  UNL1       -0.4761
     19 C          15.3550   42.6903    6.8126 C.3     1  UNL1        0.1660
     20 C          16.6872   43.4156    6.7402 C.3     1  UNL1        0.0435
     21 C          16.3860   44.8558    6.3758 C.3     1  UNL1        0.0038
     22 C          14.9865   44.8527    5.8078 C.3     1  UNL1        0.0038
     23 C          14.2807   43.7202    6.5138 C.3     1  UNL1        0.0435
@<TRIPOS>BOND
     1    16    17    1
     2     1    17    1
     3     2     3   ar
     4     4     9    1
     5     4     5   ar
     6     7    11    1
     7    11    15   ar
     8    12    13   ar
     9    14    15   ar
    10     6    18    1
    11     6     1   ar
    12    19    18    1
    13    19    20    1
    14    20    21    1
    15    21    22    1
    16    22    23    1
    17    23    19    1
    18     9     7   am
    19     1     2   ar
    20     3     4   ar
    21     7     8    2
    22    11    12   ar
    23    13    14   ar
    24     5     6   ar
    25     9    10    1
