@<TRIPOS>MOLECULE
MolPort-045-964-638 CSSS00160228555 MCULE-5567901419 PubChem-131945763
 27 28 0 0 0
SMALL
GASTEIGER

@<TRIPOS>ATOM
      1 C          10.3045   40.5416    8.3775 C.2     1  UNL1        0.2493
      2 O           9.9788   39.4163    7.9082 O.2     1  UNL1       -0.2699
      3 N           9.3841   41.2322    9.2452 N.am    1  UNL1       -0.2711
      4 C          11.6201   41.1141    8.0091 C.ar    1  UNL1        0.0537
      5 C          12.7614   40.7708    8.7477 C.ar    1  UNL1        0.0058
      6 C          14.0132   41.2853    8.3994 C.ar    1  UNL1        0.0148
      7 C          14.1450   42.1470    7.3011 C.ar    1  UNL1        0.0503
      8 C          13.0108   42.4792    6.5547 C.ar    1  UNL1        0.0148
      9 C          11.7590   41.9647    6.9032 C.ar    1  UNL1        0.0058
     10 C          15.6407   43.7140    5.9305 C.2     1  UNL1        0.2266
     11 C          17.0300   44.1689    5.6647 C.3     1  UNL1        0.0949
     12 O          14.6889   44.2266    5.2845 O.2     1  UNL1       -0.2748
     13 N          15.4120   42.6967    6.9141 N.am    1  UNL1       -0.2839
     14 H          16.2068   42.3382    7.3713 H       1  UNL1        0.1549
     15 C           9.8859   42.0587   10.3441 C.3     1  UNL1        0.1055
     16 C           9.9523   43.5215    9.9342 C.3     1  UNL1        0.0242
     17 C           9.0290   41.8839   11.5893 C.3     1  UNL1        0.1619
     18 C           9.0490   41.2740   13.7093 C.3     1  UNL1        0.1742
     19 O           9.6576   41.0149   12.4815 O.3     1  UNL1       -0.3493
     20 C           7.9528   40.9358    9.1646 C.3     1  UNL1        0.1205
     21 C           7.2162   42.0657    8.5254 C.ar    1  UNL1       -0.0001
     22 C           7.5286   42.4545    7.2179 C.ar    1  UNL1        0.0270
     23 C           6.8542   43.5268    6.6258 C.ar    1  UNL1        0.1399
     24 C           5.8688   44.2141    7.3414 C.ar    1  UNL1        0.0296
     25 C           5.5576   43.8290    8.6491 C.ar    1  UNL1        0.0020
     26 C           6.2319   42.7565    9.2411 C.ar    1  UNL1       -0.0025
     27 F           7.1575   43.9012    5.3599 F       1  UNL1       -0.2042
@<TRIPOS>BOND
     1    18    19    1
     2    17    19    1
     3    17    15    1
     4    15    16    1
     5    15     3    1
     6    20     3    1
     7    20    21    1
     8    22    23   ar
     9    23    27    1
    10    24    25   ar
    11    26    21   ar
    12     1     4    1
    13     5     6   ar
    14     7    13    1
    15     7     8   ar
    16    11    10    1
    17     9     4   ar
    18     3     1   am
    19    13    10   am
    20    21    22   ar
    21    23    24   ar
    22    25    26   ar
    23     1     2    2
    24     4     5   ar
    25     6     7   ar
    26    10    12    2
    27     8     9   ar
    28    13    14    1
@<TRIPOS>MOLECULE
MolPort-045-964-638 CSSS00160228555 MCULE-5567901419 PubChem-131945763
 27 28 0 0 0
SMALL
GASTEIGER

@<TRIPOS>ATOM
      1 C          11.0074   40.2376    7.5934 C.2     1  UNL1        0.2493
      2 O          10.8611   39.1448    6.9796 O.2     1  UNL1       -0.2699
      3 N           9.9435   40.7134    8.4411 N.am    1  UNL1       -0.2711
      4 C          12.2672   40.9952    7.4103 C.ar    1  UNL1        0.0537
      5 C          12.3260   42.0334    6.4697 C.ar    1  UNL1        0.0058
      6 C          13.5005   42.7717    6.3005 C.ar    1  UNL1        0.0148
      7 C          14.6343   42.4878    7.0752 C.ar    1  UNL1        0.0503
      8 C          14.5733   41.4626    8.0234 C.ar    1  UNL1        0.0148
      9 C          13.3988   40.7243    8.1924 C.ar    1  UNL1        0.0058
     10 C          16.9961   43.1726    7.7987 C.2     1  UNL1        0.2266
     11 C          18.1879   44.0022    7.4838 C.3     1  UNL1        0.0949
     12 O          17.0049   42.4442    8.8260 O.2     1  UNL1       -0.2748
     13 N          15.8578   43.2217    6.9290 N.am    1  UNL1       -0.2839
     14 H          15.9226   43.8213    6.1508 H       1  UNL1        0.1549
     15 C          10.2514   41.4583    9.6629 C.3     1  UNL1        0.1055
     16 C          11.1700   40.6545   10.5697 C.3     1  UNL1        0.0242
     17 C          10.8648   42.8113    9.3332 C.3     1  UNL1        0.1619
     18 C           9.3118   43.9926   10.3625 C.3     1  UNL1        0.1742
     19 O          10.6734   43.6927   10.3975 O.3     1  UNL1       -0.3493
     20 C           8.5705   40.2672    8.1983 C.3     1  UNL1        0.1205
     21 C           7.6275   41.4237    8.2306 C.ar    1  UNL1       -0.0001
     22 C           7.6919   42.4075    7.2375 C.ar    1  UNL1        0.0270
     23 C           6.8235   43.5026    7.2787 C.ar    1  UNL1        0.1399
     24 C           5.8915   43.6174    8.3149 C.ar    1  UNL1        0.0296
     25 C           5.8279   42.6369    9.3098 C.ar    1  UNL1        0.0020
     26 C           6.6962   41.5417    9.2685 C.ar    1  UNL1       -0.0025
     27 F           6.8869   44.4534    6.3162 F       1  UNL1       -0.2042
@<TRIPOS>BOND
     1    18    19    1
     2    17    19    1
     3    17    15    1
     4    15    16    1
     5    15     3    1
     6    20     3    1
     7    20    21    1
     8    22    23   ar
     9    23    27    1
    10    24    25   ar
    11    26    21   ar
    12     1     4    1
    13     5     6   ar
    14     7    13    1
    15     7     8   ar
    16    11    10    1
    17     9     4   ar
    18     3     1   am
    19    13    10   am
    20    21    22   ar
    21    23    24   ar
    22    25    26   ar
    23     1     2    2
    24     4     5   ar
    25     6     7   ar
    26    10    12    2
    27     8     9   ar
    28    13    14    1
@<TRIPOS>MOLECULE
MolPort-045-964-638 CSSS00160228555 MCULE-5567901419 PubChem-131945763
 27 28 0 0 0
SMALL
GASTEIGER

@<TRIPOS>ATOM
      1 C          10.7526   40.7980    6.7210 C.2     1  UNL1        0.2493
      2 O          10.3510   40.7328    5.5264 O.2     1  UNL1       -0.2699
      3 N           9.8357   40.4819    7.7870 N.am    1  UNL1       -0.2711
      4 C          12.1523   41.2072    6.9814 C.ar    1  UNL1        0.0537
      5 C          12.6372   42.4108    6.4502 C.ar    1  UNL1        0.0058
      6 C          13.9485   42.8215    6.7049 C.ar    1  UNL1        0.0148
      7 C          14.7949   42.0373    7.5017 C.ar    1  UNL1        0.0503
      8 C          14.3091   40.8441    8.0440 C.ar    1  UNL1        0.0148
      9 C          12.9978   40.4336    7.7892 C.ar    1  UNL1        0.0058
     10 C          16.7210   43.7256    7.6065 C.2     1  UNL1        0.2266
     11 C          18.1469   43.9457    7.9616 C.3     1  UNL1        0.0949
     12 O          16.0427   44.6846    7.1523 O.2     1  UNL1       -0.2748
     13 N          16.1470   42.4242    7.7836 N.am    1  UNL1       -0.2839
     14 H          16.7424   41.7234    8.1352 H       1  UNL1        0.1549
     15 C          10.3189   39.8333    9.0070 C.3     1  UNL1        0.1055
     16 C          11.0225   38.5251    8.6820 C.3     1  UNL1        0.0242
     17 C          11.2368   40.7622    9.7880 C.3     1  UNL1        0.1619
     18 C          12.7749   39.9638   11.1532 C.3     1  UNL1        0.1742
     19 O          11.4172   40.2748   11.0828 O.3     1  UNL1       -0.3493
     20 C           8.3946   40.6095    7.5634 C.3     1  UNL1        0.1205
     21 C           7.9466   42.0128    7.8037 C.ar    1  UNL1       -0.0001
     22 C           8.4998   42.7543    8.8537 C.ar    1  UNL1        0.0270
     23 C           8.0653   44.0615    9.0932 C.ar    1  UNL1        0.1399
     24 C           7.0747   44.6283    8.2853 C.ar    1  UNL1        0.0296
     25 C           6.5185   43.8877    7.2376 C.ar    1  UNL1        0.0020
     26 C           6.9531   42.5805    6.9980 C.ar    1  UNL1       -0.0025
     27 F           8.6025   44.7779   10.1096 F       1  UNL1       -0.2042
@<TRIPOS>BOND
     1    18    19    1
     2    17    19    1
     3    17    15    1
     4    15    16    1
     5    15     3    1
     6    20     3    1
     7    20    21    1
     8    22    23   ar
     9    23    27    1
    10    24    25   ar
    11    26    21   ar
    12     1     4    1
    13     5     6   ar
    14     7    13    1
    15     7     8   ar
    16    11    10    1
    17     9     4   ar
    18     3     1   am
    19    13    10   am
    20    21    22   ar
    21    23    24   ar
    22    25    26   ar
    23     1     2    2
    24     4     5   ar
    25     6     7   ar
    26    10    12    2
    27     8     9   ar
    28    13    14    1
@<TRIPOS>MOLECULE
MolPort-045-964-638 CSSS00160228555 MCULE-5567901419 PubChem-131945763
 27 28 0 0 0
SMALL
GASTEIGER

@<TRIPOS>ATOM
      1 C          10.7976   40.4104    7.6194 C.2     1  UNL1        0.2493
      2 O          10.6033   39.3311    6.9950 O.2     1  UNL1       -0.2699
      3 N           9.7643   40.9126    8.4895 N.am    1  UNL1       -0.2711
      4 C          12.0803   41.1254    7.4253 C.ar    1  UNL1        0.0537
      5 C          13.2170   40.7253    8.1421 C.ar    1  UNL1        0.0058
      6 C          14.4396   41.3756    7.9540 C.ar    1  UNL1        0.0148
      7 C          14.5468   42.4334    7.0398 C.ar    1  UNL1        0.0503
      8 C          13.4182   42.8246    6.3138 C.ar    1  UNL1        0.0148
      9 C          12.1957   42.1742    6.5020 C.ar    1  UNL1        0.0058
     10 C          16.9199   43.1486    7.6940 C.2     1  UNL1        0.2266
     11 C          18.1265   43.9197    7.2973 C.3     1  UNL1        0.0949
     12 O          16.9149   42.5317    8.7919 O.2     1  UNL1       -0.2748
     13 N          15.7834   43.1264    6.8209 N.am    1  UNL1       -0.2839
     14 H          15.8594   43.6400    5.9844 H       1  UNL1        0.1549
     15 C          10.1172   41.6311    9.7150 C.3     1  UNL1        0.1055
     16 C          10.9853   40.7682   10.6172 C.3     1  UNL1        0.0242
     17 C          10.8117   42.9459    9.3920 C.3     1  UNL1        0.1619
     18 C           9.2321   44.1227   10.3853 C.3     1  UNL1        0.1742
     19 O          10.6014   43.8612   10.4237 O.3     1  UNL1       -0.3493
     20 C           8.3728   40.5181    8.2632 C.3     1  UNL1        0.1205
     21 C           7.5123   41.7194    8.0534 C.ar    1  UNL1       -0.0001
     22 C           6.4871   42.0131    8.9594 C.ar    1  UNL1        0.0270
     23 C           5.6664   43.1261    8.7521 C.ar    1  UNL1        0.1399
     24 C           5.8674   43.9452    7.6367 C.ar    1  UNL1        0.0296
     25 C           6.8894   43.6513    6.7286 C.ar    1  UNL1        0.0020
     26 C           7.7102   42.5385    6.9360 C.ar    1  UNL1       -0.0025
     27 F           4.6750   43.4092    9.6305 F       1  UNL1       -0.2042
@<TRIPOS>BOND
     1    18    19    1
     2    17    19    1
     3    17    15    1
     4    15    16    1
     5    15     3    1
     6    20     3    1
     7    20    21    1
     8    22    23   ar
     9    23    27    1
    10    24    25   ar
    11    26    21   ar
    12     1     4    1
    13     5     6   ar
    14     7    13    1
    15     7     8   ar
    16    11    10    1
    17     9     4   ar
    18     3     1   am
    19    13    10   am
    20    21    22   ar
    21    23    24   ar
    22    25    26   ar
    23     1     2    2
    24     4     5   ar
    25     6     7   ar
    26    10    12    2
    27     8     9   ar
    28    13    14    1
@<TRIPOS>MOLECULE
MolPort-045-964-638 CSSS00160228555 MCULE-5567901419 PubChem-131945763
 27 28 0 0 0
SMALL
GASTEIGER

@<TRIPOS>ATOM
      1 C          11.0250   41.3809    9.6615 C.2     1  UNL1        0.2493
      2 O          10.7249   42.4501   10.2609 O.2     1  UNL1       -0.2699
      3 N           9.9957   40.6604    8.9556 N.am    1  UNL1       -0.2711
      4 C          12.4258   40.9023    9.7153 C.ar    1  UNL1        0.0537
      5 C          12.8291   40.0403   10.7451 C.ar    1  UNL1        0.0058
      6 C          14.1415   39.5627   10.7974 C.ar    1  UNL1        0.0148
      7 C          15.0710   39.9345    9.8156 C.ar    1  UNL1        0.0503
      8 C          14.6673   40.7824    8.7802 C.ar    1  UNL1        0.0148
      9 C          13.3549   41.2599    8.7280 C.ar    1  UNL1        0.0058
     10 C          17.0274   38.6234   10.8277 C.2     1  UNL1        0.2266
     11 C          18.4530   38.2310   10.6810 C.3     1  UNL1        0.0949
     12 O          16.3728   38.2118   11.8217 O.2     1  UNL1       -0.2748
     13 N          16.4267   39.4669    9.8366 N.am    1  UNL1       -0.2839
     14 H          17.0045   39.7551    9.0934 H       1  UNL1        0.1549
     15 C          10.3151   39.9348    7.7252 C.3     1  UNL1        0.1055
     16 C           9.2990   38.8332    7.4674 C.3     1  UNL1        0.0242
     17 C          10.3949   40.8857    6.5400 C.3     1  UNL1        0.1619
     18 C          10.8230   40.2487    4.4717 C.3     1  UNL1        0.1742
     19 O           9.8020   40.3015    5.4203 O.3     1  UNL1       -0.3493
     20 C           8.5951   40.8320    9.3456 C.3     1  UNL1        0.1205
     21 C           7.9947   42.0077    8.6492 C.ar    1  UNL1       -0.0001
     22 C           8.0331   43.2714    9.2490 C.ar    1  UNL1        0.0270
     23 C           7.4519   44.3694    8.6074 C.ar    1  UNL1        0.1399
     24 C           6.8285   44.2049    7.3666 C.ar    1  UNL1        0.0296
     25 C           6.7864   42.9422    6.7672 C.ar    1  UNL1        0.0020
     26 C           7.3678   41.8442    7.4088 C.ar    1  UNL1       -0.0025
     27 F           7.4907   45.5919    9.1893 F       1  UNL1       -0.2042
@<TRIPOS>BOND
     1    18    19    1
     2    17    19    1
     3    17    15    1
     4    15    16    1
     5    15     3    1
     6    20     3    1
     7    20    21    1
     8    22    23   ar
     9    23    27    1
    10    24    25   ar
    11    26    21   ar
    12     1     4    1
    13     5     6   ar
    14     7    13    1
    15     7     8   ar
    16    11    10    1
    17     9     4   ar
    18     3     1   am
    19    13    10   am
    20    21    22   ar
    21    23    24   ar
    22    25    26   ar
    23     1     2    2
    24     4     5   ar
    25     6     7   ar
    26    10    12    2
    27     8     9   ar
    28    13    14    1
@<TRIPOS>MOLECULE
MolPort-045-964-638 CSSS00160228555 MCULE-5567901419 PubChem-131945763
 27 28 0 0 0
SMALL
GASTEIGER

@<TRIPOS>ATOM
      1 C           9.0801   43.1884    9.2364 C.2     1  UNL1        0.2493
      2 O           9.0517   44.3863    9.6325 O.2     1  UNL1       -0.2699
      3 N           8.0859   42.7374    8.2957 N.am    1  UNL1       -0.2711
      4 C          10.1319   42.2881    9.7632 C.ar    1  UNL1        0.0537
      5 C           9.9143   41.5848   10.9565 C.ar    1  UNL1        0.0058
      6 C          10.8879   40.7149   11.4550 C.ar    1  UNL1        0.0148
      7 C          12.0935   40.5289   10.7636 C.ar    1  UNL1        0.0503
      8 C          12.3066   41.2182    9.5663 C.ar    1  UNL1        0.0148
      9 C          11.3329   42.0881    9.0680 C.ar    1  UNL1        0.0058
     10 C          14.4643   39.5541   10.7638 C.2     1  UNL1        0.2266
     11 C          15.3949   38.5807   11.3917 C.3     1  UNL1        0.0949
     12 O          14.8737   40.2777    9.8178 O.2     1  UNL1       -0.2748
     13 N          13.1171   39.6468   11.2444 N.am    1  UNL1       -0.2839
     14 H          12.8687   39.0423   11.9807 H       1  UNL1        0.1549
     15 C           8.4285   41.7367    7.2839 C.3     1  UNL1        0.1055
     16 C           8.5727   40.3595    7.9122 C.3     1  UNL1        0.0242
     17 C           7.3940   41.7171    6.1683 C.3     1  UNL1        0.1619
     18 C           6.2182   39.8508    6.1338 C.3     1  UNL1        0.1742
     19 O           7.3495   40.4517    5.5825 O.3     1  UNL1       -0.3493
     20 C           6.8011   43.4341    8.2111 C.3     1  UNL1        0.1205
     21 C           5.8137   42.8344    9.1561 C.ar    1  UNL1       -0.0001
     22 C           6.2376   41.9126   10.1198 C.ar    1  UNL1        0.0270
     23 C           5.3101   41.3339   10.9916 C.ar    1  UNL1        0.1399
     24 C           3.9568   41.6735   10.8989 C.ar    1  UNL1        0.0296
     25 C           3.5310   42.5920    9.9343 C.ar    1  UNL1        0.0020
     26 C           4.4585   43.1709    9.0628 C.ar    1  UNL1       -0.0025
     27 F           5.7224   40.4423   11.9242 F       1  UNL1       -0.2042
@<TRIPOS>BOND
     1    18    19    1
     2    17    19    1
     3    17    15    1
     4    15    16    1
     5    15     3    1
     6    20     3    1
     7    20    21    1
     8    22    23   ar
     9    23    27    1
    10    24    25   ar
    11    26    21   ar
    12     1     4    1
    13     5     6   ar
    14     7    13    1
    15     7     8   ar
    16    11    10    1
    17     9     4   ar
    18     3     1   am
    19    13    10   am
    20    21    22   ar
    21    23    24   ar
    22    25    26   ar
    23     1     2    2
    24     4     5   ar
    25     6     7   ar
    26    10    12    2
    27     8     9   ar
    28    13    14    1
@<TRIPOS>MOLECULE
MolPort-045-964-638 CSSS00160228555 MCULE-5567901419 PubChem-131945763
 27 28 0 0 0
SMALL
GASTEIGER

@<TRIPOS>ATOM
      1 C          12.2359   39.4659    8.4028 C.2     1  UNL1        0.2493
      2 O          12.2805   38.2423    8.0974 O.2     1  UNL1       -0.2699
      3 N          10.9577   40.0754    8.6705 N.am    1  UNL1       -0.2711
      4 C          13.5023   40.2319    8.4650 C.ar    1  UNL1        0.0537
      5 C          14.4935   39.8667    9.3871 C.ar    1  UNL1        0.0058
      6 C          15.7024   40.5657    9.4432 C.ar    1  UNL1        0.0148
      7 C          15.9425   41.6381    8.5723 C.ar    1  UNL1        0.0503
      8 C          14.9614   41.9948    7.6427 C.ar    1  UNL1        0.0148
      9 C          13.7525   41.2957    7.5867 C.ar    1  UNL1        0.0058
     10 C          17.3973   43.6815    8.0443 C.2     1  UNL1        0.2266
     11 C          18.7399   44.3040    8.1771 C.3     1  UNL1        0.0949
     12 O          16.4844   44.3054    7.4414 O.2     1  UNL1       -0.2748
     13 N          17.1693   42.3806    8.6012 N.am    1  UNL1       -0.2839
     14 H          17.9338   41.9524    9.0499 H       1  UNL1        0.1549
     15 C          10.8421   41.1362    9.6725 C.3     1  UNL1        0.1055
     16 C          11.6246   40.7827   10.9274 C.3     1  UNL1        0.0242
     17 C          11.3030   42.4707    9.1051 C.3     1  UNL1        0.1619
     18 C           9.5835   43.6054    9.8941 C.3     1  UNL1        0.1742
     19 O          10.9713   43.5018    9.9845 O.3     1  UNL1       -0.3493
     20 C           9.7430   39.4887    8.1019 C.3     1  UNL1        0.1205
     21 C           9.7858   39.5313    6.6106 C.ar    1  UNL1       -0.0001
     22 C           9.5696   38.3637    5.8702 C.ar    1  UNL1        0.0270
     23 C           9.6310   38.3981    4.4738 C.ar    1  UNL1        0.1399
     24 C           9.9119   39.5994    3.8154 C.ar    1  UNL1        0.0296
     25 C          10.1313   40.7665    4.5538 C.ar    1  UNL1        0.0020
     26 C          10.0698   40.7321    5.9503 C.ar    1  UNL1       -0.0025
     27 F           9.4207   37.2670    3.7589 F       1  UNL1       -0.2042
@<TRIPOS>BOND
     1    18    19    1
     2    17    19    1
     3    17    15    1
     4    15    16    1
     5    15     3    1
     6    20     3    1
     7    20    21    1
     8    22    23   ar
     9    23    27    1
    10    24    25   ar
    11    26    21   ar
    12     1     4    1
    13     5     6   ar
    14     7    13    1
    15     7     8   ar
    16    11    10    1
    17     9     4   ar
    18     3     1   am
    19    13    10   am
    20    21    22   ar
    21    23    24   ar
    22    25    26   ar
    23     1     2    2
    24     4     5   ar
    25     6     7   ar
    26    10    12    2
    27     8     9   ar
    28    13    14    1
@<TRIPOS>MOLECULE
MolPort-045-964-638 CSSS00160228555 MCULE-5567901419 PubChem-131945763
 27 28 0 0 0
SMALL
GASTEIGER

@<TRIPOS>ATOM
      1 C           9.8197   40.0248    8.2183 C.2     1  UNL1        0.2493
      2 O           9.9451   38.9972    7.4967 O.2     1  UNL1       -0.2699
      3 N          10.7385   40.2316    9.3092 N.am    1  UNL1       -0.2711
      4 C           8.7239   40.9760    7.9204 C.ar    1  UNL1        0.0537
      5 C           7.6498   41.1039    8.8126 C.ar    1  UNL1        0.0058
      6 C           6.6192   42.0125    8.5566 C.ar    1  UNL1        0.0148
      7 C           6.6498   42.8137    7.4063 C.ar    1  UNL1        0.0503
      8 C           7.7268   42.6980    6.5228 C.ar    1  UNL1        0.0148
      9 C           8.7573   41.7893    6.7788 C.ar    1  UNL1        0.0058
     10 C           4.6474   44.2889    8.0267 C.2     1  UNL1        0.2266
     11 C           3.6416   45.2677    7.5386 C.3     1  UNL1        0.0949
     12 O           4.6342   43.9417    9.2372 O.2     1  UNL1       -0.2748
     13 N           5.6101   43.7557    7.1083 N.am    1  UNL1       -0.2839
     14 H           5.5516   44.0684    6.1766 H       1  UNL1        0.1549
     15 C          11.1488   41.5866    9.6808 C.3     1  UNL1        0.1055
     16 C          11.4158   42.4295    8.4437 C.3     1  UNL1        0.0242
     17 C          10.1038   42.2453   10.5693 C.3     1  UNL1        0.1619
     18 C           9.1873   44.2207   10.2160 C.3     1  UNL1        0.1742
     19 O          10.3581   43.6134   10.6694 O.3     1  UNL1       -0.3493
     20 C          11.4274   39.0841    9.9024 C.3     1  UNL1        0.1205
     21 C          12.8887   39.3577   10.0342 C.ar    1  UNL1       -0.0001
     22 C          13.5626   40.0619    9.0300 C.ar    1  UNL1        0.0270
     23 C          14.9358   40.3000    9.1421 C.ar    1  UNL1        0.1399
     24 C          15.6381   39.8315   10.2569 C.ar    1  UNL1        0.0296
     25 C          14.9670   39.1250   11.2598 C.ar    1  UNL1        0.0020
     26 C          13.5936   38.8871   11.1478 C.ar    1  UNL1       -0.0025
     27 F          15.5861   40.9823    8.1694 F       1  UNL1       -0.2042
@<TRIPOS>BOND
     1    18    19    1
     2    17    19    1
     3    17    15    1
     4    15    16    1
     5    15     3    1
     6    20     3    1
     7    20    21    1
     8    22    23   ar
     9    23    27    1
    10    24    25   ar
    11    26    21   ar
    12     1     4    1
    13     5     6   ar
    14     7    13    1
    15     7     8   ar
    16    11    10    1
    17     9     4   ar
    18     3     1   am
    19    13    10   am
    20    21    22   ar
    21    23    24   ar
    22    25    26   ar
    23     1     2    2
    24     4     5   ar
    25     6     7   ar
    26    10    12    2
    27     8     9   ar
    28    13    14    1
@<TRIPOS>MOLECULE
MolPort-045-964-638 CSSS00160228555 MCULE-5567901419 PubChem-131945763
 27 28 0 0 0
SMALL
GASTEIGER

@<TRIPOS>ATOM
      1 C           9.6225   41.1778    8.3608 C.2     1  UNL1        0.2493
      2 O           9.0398   40.0890    8.1014 O.2     1  UNL1       -0.2699
      3 N           8.8294   42.3511    8.6279 N.am    1  UNL1       -0.2711
      4 C          11.1035   41.2091    8.3712 C.ar    1  UNL1        0.0537
      5 C          11.8048   40.6662    9.4572 C.ar    1  UNL1        0.0058
      6 C          13.2022   40.6684    9.4719 C.ar    1  UNL1        0.0148
      7 C          13.9218   41.2082    8.3962 C.ar    1  UNL1        0.0503
      8 C          13.2247   41.7371    7.3061 C.ar    1  UNL1        0.0148
      9 C          11.8273   41.7349    7.2916 C.ar    1  UNL1        0.0058
     10 C          16.1911   42.3464    8.0421 C.2     1  UNL1        0.2266
     11 C          17.6679   42.1869    8.0829 C.3     1  UNL1        0.0949
     12 O          15.6990   43.4574    7.7112 O.2     1  UNL1       -0.2748
     13 N          15.3557   41.2305    8.3759 N.am    1  UNL1       -0.2839
     14 H          15.8136   40.3927    8.6161 H       1  UNL1        0.1549
     15 C           9.2933   43.3512    9.5907 C.3     1  UNL1        0.1055
     16 C           8.5989   44.6846    9.3627 C.3     1  UNL1        0.0242
     17 C           9.0828   42.8684   11.0182 C.3     1  UNL1        0.1619
     18 C           9.8122   41.3791   12.4731 C.3     1  UNL1        0.1742
     19 O          10.2504   42.2727   11.4962 O.3     1  UNL1       -0.3493
     20 C           7.4651   42.4369    8.1037 C.3     1  UNL1        0.1205
     21 C           6.4926   41.8411    9.0665 C.ar    1  UNL1       -0.0001
     22 C           5.1767   41.5859    8.6648 C.ar    1  UNL1        0.0270
     23 C           4.2590   41.0479    9.5722 C.ar    1  UNL1        0.1399
     24 C           4.6547   40.7673   10.8837 C.ar    1  UNL1        0.0296
     25 C           5.9684   41.0247   11.2878 C.ar    1  UNL1        0.0020
     26 C           6.8862   41.5625   10.3803 C.ar    1  UNL1       -0.0025
     27 F           2.9858   40.8009    9.1812 F       1  UNL1       -0.2042
@<TRIPOS>BOND
     1    18    19    1
     2    17    19    1
     3    17    15    1
     4    15    16    1
     5    15     3    1
     6    20     3    1
     7    20    21    1
     8    22    23   ar
     9    23    27    1
    10    24    25   ar
    11    26    21   ar
    12     1     4    1
    13     5     6   ar
    14     7    13    1
    15     7     8   ar
    16    11    10    1
    17     9     4   ar
    18     3     1   am
    19    13    10   am
    20    21    22   ar
    21    23    24   ar
    22    25    26   ar
    23     1     2    2
    24     4     5   ar
    25     6     7   ar
    26    10    12    2
    27     8     9   ar
    28    13    14    1
@<TRIPOS>MOLECULE
MolPort-045-964-638 CSSS00160228555 MCULE-5567901419 PubChem-131945763
 27 28 0 0 0
SMALL
GASTEIGER

@<TRIPOS>ATOM
      1 C          11.0396   41.5230    9.3263 C.2     1  UNL1        0.2493
      2 O          10.7068   42.6240    9.8455 O.2     1  UNL1       -0.2699
      3 N          10.0232   40.6941    8.7289 N.am    1  UNL1       -0.2711
      4 C          12.4648   41.1207    9.3599 C.ar    1  UNL1        0.0537
      5 C          12.9155   40.2326   10.3469 C.ar    1  UNL1        0.0058
      6 C          14.2524   39.8264   10.3788 C.ar    1  UNL1        0.0148
      7 C          15.1596   40.2971    9.4188 C.ar    1  UNL1        0.0503
      8 C          14.7092   41.1715    8.4256 C.ar    1  UNL1        0.0148
      9 C          13.3723   41.5776    8.3938 C.ar    1  UNL1        0.0058
     10 C          17.2584   39.3032   10.5042 C.2     1  UNL1        0.2266
     11 C          18.6911   38.9544   10.3212 C.3     1  UNL1        0.0949
     12 O          16.7019   39.0682   11.6092 O.2     1  UNL1       -0.2748
     13 N          16.5392   39.9049    9.4201 N.am    1  UNL1       -0.2839
     14 H          17.0444   40.0655    8.5905 H       1  UNL1        0.1549
     15 C          10.3327   39.8813    7.5516 C.3     1  UNL1        0.1055
     16 C           9.3347   38.7438    7.4019 C.3     1  UNL1        0.0242
     17 C          10.3688   40.7386    6.2949 C.3     1  UNL1        0.1619
     18 C          10.7647   40.0714    4.2298 C.3     1  UNL1        0.1742
     19 O           9.7928   40.0460    5.2296 O.3     1  UNL1       -0.3493
     20 C           8.6317   40.8294    9.1631 C.3     1  UNL1        0.1205
     21 C           7.9722   41.9741    8.4684 C.ar    1  UNL1       -0.0001
     22 C           7.4090   41.7930    7.2003 C.ar    1  UNL1        0.0270
     23 C           6.8101   42.8698    6.5394 C.ar    1  UNL1        0.1399
     24 C           6.7764   44.1303    7.1440 C.ar    1  UNL1        0.0296
     25 C           7.3416   44.3138    8.4098 C.ar    1  UNL1        0.0020
     26 C           7.9403   43.2369    9.0708 C.ar    1  UNL1       -0.0025
     27 F           6.2648   42.6923    5.3123 F       1  UNL1       -0.2042
@<TRIPOS>BOND
     1    18    19    1
     2    17    19    1
     3    17    15    1
     4    15    16    1
     5    15     3    1
     6    20     3    1
     7    20    21    1
     8    22    23   ar
     9    23    27    1
    10    24    25   ar
    11    26    21   ar
    12     1     4    1
    13     5     6   ar
    14     7    13    1
    15     7     8   ar
    16    11    10    1
    17     9     4   ar
    18     3     1   am
    19    13    10   am
    20    21    22   ar
    21    23    24   ar
    22    25    26   ar
    23     1     2    2
    24     4     5   ar
    25     6     7   ar
    26    10    12    2
    27     8     9   ar
    28    13    14    1
