@<TRIPOS>MOLECULE
Molport-020-280-055 MCULE-5859070276 PubChem-110256434
 28 30 0 0 0
SMALL
GASTEIGER

@<TRIPOS>ATOM
      1 C           7.7611   41.6939   11.1512 C.ar    1  UNL1        0.1357
      2 C           9.0814   41.2357   13.0625 C.ar    1  UNL1        0.1406
      3 C          10.0410   40.9844   10.9158 C.ar    1  UNL1        0.0644
      4 C           8.8391   41.3750   10.3259 C.ar    1  UNL1        0.0492
      5 C           9.2106   41.1614   14.5408 C.3     1  UNL1        0.0737
      6 N           7.9042   41.6177   12.5024 N.ar    1  UNL1       -0.2159
      7 N          10.1402   40.9221   12.2716 N.ar    1  UNL1       -0.2348
      8 C          11.2074   40.6399   10.0506 C.3     1  UNL1        0.0603
      9 C          12.4159   40.2359   10.9012 C.3     1  UNL1        0.0094
     10 C          13.6886   39.9866   10.0751 C.3     1  UNL1        0.0219
     11 C          13.5096   40.2830    8.5857 C.3     1  UNL1        0.0934
     12 C          11.5596   41.8070    9.1257 C.3     1  UNL1        0.0993
     13 C          13.3782   42.5876    7.5818 C.2     1  UNL1        0.2282
     14 N          12.8144   41.5583    8.4093 N.am    1  UNL1       -0.2791
     15 O          12.7893   43.6954    7.4597 O.2     1  UNL1       -0.2748
     16 C          14.6502   42.3617    6.8274 C.3     1  UNL1        0.1172
     17 C          15.2435   43.6835    6.3688 C.3     1  UNL1        0.1518
     18 C          17.3810   43.9771    6.8280 C.3     1  UNL1        0.1741
     19 O          16.1038   44.1872    7.3452 O.3     1  UNL1       -0.3506
     20 N           6.5219   42.0960   10.5554 N.pl3   1  UNL1       -0.2833
     21 H           5.6996   41.8902   11.0562 H       1  UNL1        0.1550
     22 C           3.9585   45.1056    7.6612 C.3     1  UNL1        0.0521
     23 C           5.1380   44.2274    7.8757 C.ar    1  UNL1        0.0608
     24 C           6.3648   42.7689    9.3004 C.ar    1  UNL1        0.1328
     25 C           7.3274   42.5832    8.3046 C.ar    1  UNL1        0.0344
     26 C           7.1818   43.2354    7.0789 C.ar    1  UNL1        0.0041
     27 C           6.0808   44.0641    6.8590 C.ar    1  UNL1        0.0148
     28 N           5.2979   43.5832    9.0629 N.ar    1  UNL1       -0.2349
@<TRIPOS>BOND
     1    22    23    1
     2    24    28   ar
     3    24    20    1
     4    25    26   ar
     5    27    23   ar
     6     2     6   ar
     7     3     7   ar
     8     4     1   ar
     9     8     3    1
    10     8     9    1
    11     9    10    1
    12    10    11    1
    13    11    14    1
    14    12    14    1
    15    12     8    1
    16    16    13    1
    17    16    17    1
    18    17    19    1
    19    18    19    1
    20     5     2    1
    21    20     1    1
    22    14    13   am
    23    23    28   ar
    24    24    25   ar
    25    26    27   ar
    26     1     6   ar
    27     2     7   ar
    28     3     4   ar
    29    13    15    2
    30    20    21    1
@<TRIPOS>MOLECULE
Molport-020-280-055 MCULE-5859070276 PubChem-110256434
 28 30 0 0 0
SMALL
GASTEIGER

@<TRIPOS>ATOM
      1 C           8.4315   40.9059    6.0985 C.ar    1  UNL1        0.1357
      2 C           9.4021   39.4570    4.4970 C.ar    1  UNL1        0.1406
      3 C          10.8076   40.5792    6.0324 C.ar    1  UNL1        0.0644
      4 C           9.6963   41.1906    6.6124 C.ar    1  UNL1        0.0492
      5 C           9.2413   38.5206    3.3546 C.3     1  UNL1        0.0737
      6 N           8.3102   40.0451    5.0514 N.ar    1  UNL1       -0.2159
      7 N          10.6405   39.7245    4.9867 N.ar    1  UNL1       -0.2348
      8 C          12.1701   40.8693    6.5681 C.3     1  UNL1        0.0603
      9 C          12.1591   40.8944    8.0999 C.3     1  UNL1        0.0094
     10 C          13.5065   41.3092    8.7139 C.3     1  UNL1        0.0219
     11 C          14.5517   41.7004    7.6685 C.3     1  UNL1        0.0934
     12 C          12.7034   42.1894    6.0069 C.3     1  UNL1        0.0993
     13 C          14.5481   43.8534    6.3644 C.2     1  UNL1        0.2282
     14 N          13.9520   42.5825    6.6671 N.am    1  UNL1       -0.2791
     15 O          14.0085   44.6218    5.5234 O.2     1  UNL1       -0.2748
     16 C          15.8283   44.2794    7.0108 C.3     1  UNL1        0.1172
     17 C          16.9972   44.0966    6.0570 C.3     1  UNL1        0.1518
     18 C          17.7622   43.8316    8.1090 C.3     1  UNL1        0.1741
     19 O          18.1607   43.8133    6.7735 O.3     1  UNL1       -0.3506
     20 N           7.2834   41.5289    6.6868 N.pl3   1  UNL1       -0.2833
     21 H           6.6894   42.0293    6.0818 H       1  UNL1        0.1550
     22 C           3.9171   40.7135   10.1520 C.3     1  UNL1        0.0521
     23 C           5.3000   41.1035    9.7729 C.ar    1  UNL1        0.0608
     24 C           6.9171   41.4934    8.0713 C.ar    1  UNL1        0.1328
     25 C           7.8718   41.8271    9.0356 C.ar    1  UNL1        0.0344
     26 C           7.5229   41.7949   10.3869 C.ar    1  UNL1        0.0041
     27 C           6.2290   41.4311   10.7623 C.ar    1  UNL1        0.0148
     28 N           5.6596   41.1410    8.4617 N.ar    1  UNL1       -0.2349
@<TRIPOS>BOND
     1    22    23    1
     2    24    28   ar
     3    24    20    1
     4    25    26   ar
     5    27    23   ar
     6     2     6   ar
     7     3     7   ar
     8     4     1   ar
     9     8     3    1
    10     8     9    1
    11     9    10    1
    12    10    11    1
    13    11    14    1
    14    12    14    1
    15    12     8    1
    16    16    13    1
    17    16    17    1
    18    17    19    1
    19    18    19    1
    20     5     2    1
    21    20     1    1
    22    14    13   am
    23    23    28   ar
    24    24    25   ar
    25    26    27   ar
    26     1     6   ar
    27     2     7   ar
    28     3     4   ar
    29    13    15    2
    30    20    21    1
@<TRIPOS>MOLECULE
Molport-020-280-055 MCULE-5859070276 PubChem-110256434
 28 30 0 0 0
SMALL
GASTEIGER

@<TRIPOS>ATOM
      1 C           7.8872   42.1199   10.8909 C.ar    1  UNL1        0.1357
      2 C           8.9842   41.3235   12.8321 C.ar    1  UNL1        0.1406
      3 C          10.0843   41.1669   10.7447 C.ar    1  UNL1        0.0644
      4 C           8.9872   41.7547   10.1153 C.ar    1  UNL1        0.0492
      5 C           8.9810   41.0917   14.2998 C.3     1  UNL1        0.0737
      6 N           7.9081   41.8968   12.2332 N.ar    1  UNL1       -0.2159
      7 N          10.0629   40.9624   12.0899 N.ar    1  UNL1       -0.2348
      8 C          11.2722   40.7695    9.9331 C.3     1  UNL1        0.0603
      9 C          12.4300   40.3367   10.8383 C.3     1  UNL1        0.0094
     10 C          13.7259   40.0314   10.0690 C.3     1  UNL1        0.0219
     11 C          13.6184   40.3117    8.5696 C.3     1  UNL1        0.0934
     12 C          11.7028   41.9100    9.0081 C.3     1  UNL1        0.0993
     13 C          13.6091   42.6044    7.5304 C.2     1  UNL1        0.2282
     14 N          12.9763   41.6075    8.3476 N.am    1  UNL1       -0.2791
     15 O          13.0650   43.7299    7.3692 O.2     1  UNL1       -0.2748
     16 C          14.9022   42.3236    6.8323 C.3     1  UNL1        0.1172
     17 C          16.0765   42.8232    7.6574 C.3     1  UNL1        0.1518
     18 C          16.5663   44.0733    5.9071 C.3     1  UNL1        0.1741
     19 O          16.3991   44.1301    7.2898 O.3     1  UNL1       -0.3506
     20 N           6.7549   42.7241   10.2542 N.pl3   1  UNL1       -0.2833
     21 H           6.8980   43.6009    9.8301 H       1  UNL1        0.1550
     22 C           2.2787   42.1803   12.1705 C.3     1  UNL1        0.0521
     23 C           3.2535   41.8951   11.0857 C.ar    1  UNL1        0.0608
     24 C           5.4344   42.1742   10.1758 C.ar    1  UNL1        0.1328
     25 C           5.0930   41.3803    9.0776 C.ar    1  UNL1        0.0344
     26 C           3.8082   40.8408    8.9936 C.ar    1  UNL1        0.0041
     27 C           2.8790   41.0976   10.0026 C.ar    1  UNL1        0.0148
     28 N           4.5102   42.4114   11.1491 N.ar    1  UNL1       -0.2349
@<TRIPOS>BOND
     1    22    23    1
     2    24    28   ar
     3    24    20    1
     4    25    26   ar
     5    27    23   ar
     6     2     6   ar
     7     3     7   ar
     8     4     1   ar
     9     8     3    1
    10     8     9    1
    11     9    10    1
    12    10    11    1
    13    11    14    1
    14    12    14    1
    15    12     8    1
    16    16    13    1
    17    16    17    1
    18    17    19    1
    19    18    19    1
    20     5     2    1
    21    20     1    1
    22    14    13   am
    23    23    28   ar
    24    24    25   ar
    25    26    27   ar
    26     1     6   ar
    27     2     7   ar
    28     3     4   ar
    29    13    15    2
    30    20    21    1
@<TRIPOS>MOLECULE
Molport-020-280-055 MCULE-5859070276 PubChem-110256434
 28 30 0 0 0
SMALL
GASTEIGER

@<TRIPOS>ATOM
      1 C           8.3898   39.9720    6.2632 C.ar    1  UNL1        0.1357
      2 C           9.4999   39.1327    4.3476 C.ar    1  UNL1        0.1406
      3 C          10.7800   40.0894    6.0907 C.ar    1  UNL1        0.0644
      4 C           9.6154   40.3438    6.8148 C.ar    1  UNL1        0.0492
      5 C           9.4356   38.4781    3.0153 C.3     1  UNL1        0.0737
      6 N           8.3570   39.3742    5.0410 N.ar    1  UNL1       -0.2159
      7 N          10.7011   39.4891    4.8719 N.ar    1  UNL1       -0.2348
      8 C          12.1022   40.4783    6.6635 C.3     1  UNL1        0.0603
      9 C          12.0251   40.5820    8.1901 C.3     1  UNL1        0.0094
     10 C          13.3226   41.0984    8.8338 C.3     1  UNL1        0.0219
     11 C          14.3900   41.4896    7.8111 C.3     1  UNL1        0.0934
     12 C          12.5913   41.7939    6.0536 C.3     1  UNL1        0.0993
     13 C          14.3327   43.5691    6.3939 C.2     1  UNL1        0.2282
     14 N          13.7894   42.2860    6.7407 N.am    1  UNL1       -0.2791
     15 O          13.7911   44.2635    5.4921 O.2     1  UNL1       -0.2748
     16 C          15.5613   44.0949    7.0666 C.3     1  UNL1        0.1172
     17 C          16.6713   44.3223    6.0539 C.3     1  UNL1        0.1518
     18 C          17.8113   43.9465    7.9047 C.3     1  UNL1        0.1741
     19 O          17.8668   43.7760    6.5224 O.3     1  UNL1       -0.3506
     20 N           7.1875   40.2291    6.9986 N.pl3   1  UNL1       -0.2833
     21 H           6.6887   39.4454    7.3244 H       1  UNL1        0.1550
     22 C           4.2708   43.0409    9.7539 C.3     1  UNL1        0.0521
     23 C           5.2323   42.9045    8.6290 C.ar    1  UNL1        0.0608
     24 C           6.6417   41.5177    7.3051 C.ar    1  UNL1        0.1328
     25 C           7.0277   42.6194    6.5370 C.ar    1  UNL1        0.0344
     26 C           6.5005   43.8786    6.8293 C.ar    1  UNL1        0.0041
     27 C           5.5962   44.0264    7.8818 C.ar    1  UNL1        0.0148
     28 N           5.7572   41.6863    8.3283 N.ar    1  UNL1       -0.2349
@<TRIPOS>BOND
     1    22    23    1
     2    24    28   ar
     3    24    20    1
     4    25    26   ar
     5    27    23   ar
     6     2     6   ar
     7     3     7   ar
     8     4     1   ar
     9     8     3    1
    10     8     9    1
    11     9    10    1
    12    10    11    1
    13    11    14    1
    14    12    14    1
    15    12     8    1
    16    16    13    1
    17    16    17    1
    18    17    19    1
    19    18    19    1
    20     5     2    1
    21    20     1    1
    22    14    13   am
    23    23    28   ar
    24    24    25   ar
    25    26    27   ar
    26     1     6   ar
    27     2     7   ar
    28     3     4   ar
    29    13    15    2
    30    20    21    1
@<TRIPOS>MOLECULE
Molport-020-280-055 MCULE-5859070276 PubChem-110256434
 28 30 0 0 0
SMALL
GASTEIGER

@<TRIPOS>ATOM
      1 C           8.2955   42.2822   10.6597 C.ar    1  UNL1        0.1357
      2 C           9.1991   41.4636   12.6894 C.ar    1  UNL1        0.1406
      3 C          10.4994   41.3355   10.7183 C.ar    1  UNL1        0.0644
      4 C           9.4676   41.9289    9.9915 C.ar    1  UNL1        0.0492
      5 C           9.0526   41.2134   14.1467 C.3     1  UNL1        0.0737
      6 N           8.1852   42.0423   11.9948 N.ar    1  UNL1       -0.2159
      7 N          10.3467   41.1140   12.0524 N.ar    1  UNL1       -0.2348
      8 C          11.7626   40.9507   10.0226 C.3     1  UNL1        0.0603
      9 C          11.4732   40.4588    8.6008 C.3     1  UNL1        0.0094
     10 C          12.7196   39.9310    7.8713 C.3     1  UNL1        0.0219
     11 C          13.9729   39.9200    8.7474 C.3     1  UNL1        0.0934
     12 C          12.5194   39.8876   10.8219 C.3     1  UNL1        0.0993
     13 C          14.4246   38.2696   10.5936 C.2     1  UNL1        0.2282
     14 N          13.6587   39.3623   10.0631 N.am    1  UNL1       -0.2791
     15 O          14.1284   37.7735   11.7138 O.2     1  UNL1       -0.2748
     16 C          15.6006   37.7185    9.8508 C.3     1  UNL1        0.1172
     17 C          15.1461   36.9535    8.6190 C.3     1  UNL1        0.1518
     18 C          14.5660   34.8716    9.0608 C.3     1  UNL1        0.1741
     19 O          14.0431   36.1570    8.9292 O.3     1  UNL1       -0.3506
     20 N           7.2293   42.8920    9.9224 N.pl3   1  UNL1       -0.2833
     21 H           7.4657   43.6546    9.3463 H       1  UNL1        0.1550
     22 C           3.7072   39.9091   11.5659 C.3     1  UNL1        0.0521
     23 C           4.1237   41.0628   10.7270 C.ar    1  UNL1        0.0608
     24 C           5.8521   42.4983    9.9432 C.ar    1  UNL1        0.1328
     25 C           4.9299   43.2106    9.1719 C.ar    1  UNL1        0.0344
     26 C           3.5859   42.8333    9.1867 C.ar    1  UNL1        0.0041
     27 C           3.1759   41.7524    9.9683 C.ar    1  UNL1        0.0148
     28 N           5.4284   41.4461   10.6989 N.ar    1  UNL1       -0.2349
@<TRIPOS>BOND
     1    22    23    1
     2    24    28   ar
     3    24    20    1
     4    25    26   ar
     5    27    23   ar
     6     2     6   ar
     7     3     7   ar
     8     4     1   ar
     9     8     3    1
    10     8     9    1
    11     9    10    1
    12    10    11    1
    13    11    14    1
    14    12    14    1
    15    12     8    1
    16    16    13    1
    17    16    17    1
    18    17    19    1
    19    18    19    1
    20     5     2    1
    21    20     1    1
    22    14    13   am
    23    23    28   ar
    24    24    25   ar
    25    26    27   ar
    26     1     6   ar
    27     2     7   ar
    28     3     4   ar
    29    13    15    2
    30    20    21    1
@<TRIPOS>MOLECULE
Molport-020-280-055 MCULE-5859070276 PubChem-110256434
 28 30 0 0 0
SMALL
GASTEIGER

@<TRIPOS>ATOM
      1 C          16.6267   40.5495    9.3858 C.ar    1  UNL1        0.1357
      2 C          16.3916   38.5172   10.5778 C.ar    1  UNL1        0.1406
      3 C          14.4658   39.5458    9.6689 C.ar    1  UNL1        0.0644
      4 C          15.2507   40.5809    9.1611 C.ar    1  UNL1        0.0492
      5 C          17.0095   37.4032   11.3424 C.3     1  UNL1        0.0737
      6 N          17.1689   39.5185   10.0895 N.ar    1  UNL1       -0.2159
      7 N          15.0498   38.5340   10.3670 N.ar    1  UNL1       -0.2348
      8 C          12.9912   39.5597    9.4388 C.3     1  UNL1        0.0603
      9 C          12.4341   38.1333    9.3907 C.3     1  UNL1        0.0094
     10 C          10.9396   38.0727    9.0342 C.3     1  UNL1        0.0219
     11 C          10.3399   39.4416    8.7106 C.3     1  UNL1        0.0934
     12 C          12.6501   40.3197    8.1551 C.3     1  UNL1        0.0993
     13 C          10.7379   40.7207    6.5794 C.2     1  UNL1        0.2282
     14 N          11.2310   40.1791    7.8146 N.am    1  UNL1       -0.2791
     15 O          11.5185   41.3276    5.7977 O.2     1  UNL1       -0.2748
     16 C           9.2933   40.6056    6.2079 C.3     1  UNL1        0.1172
     17 C           9.0269   39.2921    5.4917 C.3     1  UNL1        0.1518
     18 C           6.9869   39.4671    6.3126 C.3     1  UNL1        0.1741
     19 O           7.6812   39.2063    5.1325 O.3     1  UNL1       -0.3506
     20 N          17.4419   41.6080    8.8687 N.pl3   1  UNL1       -0.2833
     21 H          18.3602   41.6736    9.2174 H       1  UNL1        0.1550
     22 C          13.9513   43.6573    6.1082 C.3     1  UNL1        0.0521
     23 C          15.3711   43.5921    6.5420 C.ar    1  UNL1        0.0608
     24 C          17.0484   42.5801    7.8928 C.ar    1  UNL1        0.1328
     25 C          18.0119   43.4470    7.3703 C.ar    1  UNL1        0.0344
     26 C          17.6367   44.3972    6.4189 C.ar    1  UNL1        0.0041
     27 C          16.3080   44.4736    5.9992 C.ar    1  UNL1        0.0148
     28 N          15.7567   42.6734    7.4679 N.ar    1  UNL1       -0.2349
@<TRIPOS>BOND
     1    22    23    1
     2    24    28   ar
     3    24    20    1
     4    25    26   ar
     5    27    23   ar
     6     2     6   ar
     7     3     7   ar
     8     4     1   ar
     9     8     3    1
    10     8     9    1
    11     9    10    1
    12    10    11    1
    13    11    14    1
    14    12    14    1
    15    12     8    1
    16    16    13    1
    17    16    17    1
    18    17    19    1
    19    18    19    1
    20     5     2    1
    21    20     1    1
    22    14    13   am
    23    23    28   ar
    24    24    25   ar
    25    26    27   ar
    26     1     6   ar
    27     2     7   ar
    28     3     4   ar
    29    13    15    2
    30    20    21    1
@<TRIPOS>MOLECULE
Molport-020-280-055 MCULE-5859070276 PubChem-110256434
 28 30 0 0 0
SMALL
GASTEIGER

@<TRIPOS>ATOM
      1 C          16.4557   41.8515    8.3680 C.ar    1  UNL1        0.1357
      2 C          15.8653   43.6436    6.9376 C.ar    1  UNL1        0.1406
      3 C          14.1917   42.1185    7.6198 C.ar    1  UNL1        0.0644
      4 C          15.1339   41.4068    8.3621 C.ar    1  UNL1        0.0492
      5 C          16.2620   44.8518    6.1691 C.3     1  UNL1        0.0737
      6 N          16.7944   42.9606    7.6557 N.ar    1  UNL1       -0.2159
      7 N          14.5740   43.2226    6.9221 N.ar    1  UNL1       -0.2348
      8 C          12.7714   41.6601    7.6009 C.3     1  UNL1        0.0603
      9 C          12.1665   41.8188    6.2023 C.3     1  UNL1        0.0094
     10 C          10.6680   41.4793    6.1425 C.3     1  UNL1        0.0219
     11 C          10.0700   41.1426    7.5090 C.3     1  UNL1        0.0934
     12 C          11.9432   42.4186    8.6404 C.3     1  UNL1        0.0993
     13 C           9.5587   42.8245    9.3107 C.2     1  UNL1        0.2282
     14 N          10.5144   42.1191    8.5039 N.am    1  UNL1       -0.2791
     15 O           9.9470   43.6871   10.1437 O.2     1  UNL1       -0.2748
     16 C           8.0949   42.5338    9.2053 C.3     1  UNL1        0.1172
     17 C           7.6797   41.4930   10.2318 C.3     1  UNL1        0.1518
     18 C           8.1946   41.2508   12.3631 C.3     1  UNL1        0.1741
     19 O           7.5163   42.0912   11.4819 O.3     1  UNL1       -0.3506
     20 N          17.4315   41.1275    9.1269 N.pl3   1  UNL1       -0.2833
     21 H          18.3569   41.4622    9.0968 H       1  UNL1        0.1550
     22 C          14.3758   38.4082   11.8236 C.3     1  UNL1        0.0521
     23 C          15.7248   38.6248   11.2392 C.ar    1  UNL1        0.0608
     24 C          17.1895   39.9630    9.9253 C.ar    1  UNL1        0.1328
     25 C          18.2307   39.0552   10.1364 C.ar    1  UNL1        0.0344
     26 C          18.0031   37.9179   10.9133 C.ar    1  UNL1        0.0041
     27 C          16.7427   37.6975   11.4704 C.ar    1  UNL1        0.0148
     28 N          15.9668   39.7267   10.4795 N.ar    1  UNL1       -0.2349
@<TRIPOS>BOND
     1    22    23    1
     2    24    28   ar
     3    24    20    1
     4    25    26   ar
     5    27    23   ar
     6     2     6   ar
     7     3     7   ar
     8     4     1   ar
     9     8     3    1
    10     8     9    1
    11     9    10    1
    12    10    11    1
    13    11    14    1
    14    12    14    1
    15    12     8    1
    16    16    13    1
    17    16    17    1
    18    17    19    1
    19    18    19    1
    20     5     2    1
    21    20     1    1
    22    14    13   am
    23    23    28   ar
    24    24    25   ar
    25    26    27   ar
    26     1     6   ar
    27     2     7   ar
    28     3     4   ar
    29    13    15    2
    30    20    21    1
@<TRIPOS>MOLECULE
Molport-020-280-055 MCULE-5859070276 PubChem-110256434
 28 30 0 0 0
SMALL
GASTEIGER

@<TRIPOS>ATOM
      1 C           8.0007   42.1636   10.9241 C.ar    1  UNL1        0.1357
      2 C           9.0521   41.3231   12.8719 C.ar    1  UNL1        0.1406
      3 C          10.2511   41.3363   10.8336 C.ar    1  UNL1        0.0644
      4 C           9.1525   41.8985   10.1838 C.ar    1  UNL1        0.0492
      5 C           8.9964   41.0134   14.3240 C.3     1  UNL1        0.0737
      6 N           7.9740   41.8705   12.2527 N.ar    1  UNL1       -0.2159
      7 N          10.1811   41.0593   12.1642 N.ar    1  UNL1       -0.2348
      8 C          11.4940   41.0458   10.0600 C.3     1  UNL1        0.0603
      9 C          11.1819   40.1864    8.8307 C.3     1  UNL1        0.0094
     10 C          12.4365   39.7483    8.0570 C.3     1  UNL1        0.0219
     11 C          13.7411   40.1831    8.7258 C.3     1  UNL1        0.0934
     12 C          12.5383   40.3653   10.9478 C.3     1  UNL1        0.0993
     13 C          14.7189   39.1319   10.7935 C.2     1  UNL1        0.2282
     14 N          13.6854   39.9023   10.1607 N.am    1  UNL1       -0.2791
     15 O          14.6482   38.8672   12.0238 O.2     1  UNL1       -0.2748
     16 C          15.9088   38.6551   10.0220 C.3     1  UNL1        0.1172
     17 C          17.1707   39.3574   10.4949 C.3     1  UNL1        0.1518
     18 C          17.2445   41.1764    9.2492 C.3     1  UNL1        0.1741
     19 O          17.8385   39.9257    9.4094 O.3     1  UNL1       -0.3506
     20 N           6.8665   42.7407   10.2661 N.pl3   1  UNL1       -0.2833
     21 H           7.0027   43.6099    9.8244 H       1  UNL1        0.1550
     22 C           2.4278   42.0705   12.2291 C.3     1  UNL1        0.0521
     23 C           3.3903   41.8338   11.1219 C.ar    1  UNL1        0.0608
     24 C           5.5530   42.1739   10.1896 C.ar    1  UNL1        0.1328
     25 C           5.2067   41.4096    9.0722 C.ar    1  UNL1        0.0344
     26 C           3.9288   40.8537    8.9899 C.ar    1  UNL1        0.0041
     27 C           3.0112   41.0650   10.0198 C.ar    1  UNL1        0.0148
     28 N           4.6402   42.3667   11.1832 N.ar    1  UNL1       -0.2349
@<TRIPOS>BOND
     1    22    23    1
     2    24    28   ar
     3    24    20    1
     4    25    26   ar
     5    27    23   ar
     6     2     6   ar
     7     3     7   ar
     8     4     1   ar
     9     8     3    1
    10     8     9    1
    11     9    10    1
    12    10    11    1
    13    11    14    1
    14    12    14    1
    15    12     8    1
    16    16    13    1
    17    16    17    1
    18    17    19    1
    19    18    19    1
    20     5     2    1
    21    20     1    1
    22    14    13   am
    23    23    28   ar
    24    24    25   ar
    25    26    27   ar
    26     1     6   ar
    27     2     7   ar
    28     3     4   ar
    29    13    15    2
    30    20    21    1
@<TRIPOS>MOLECULE
Molport-020-280-055 MCULE-5859070276 PubChem-110256434
 28 30 0 0 0
SMALL
GASTEIGER

@<TRIPOS>ATOM
      1 C          13.0992   41.0714    8.5313 C.ar    1  UNL1        0.1357
      2 C          13.3995   39.9257   10.5814 C.ar    1  UNL1        0.1406
      3 C          11.4187   41.1718   10.2409 C.ar    1  UNL1        0.0644
      4 C          11.8605   41.5386    8.9699 C.ar    1  UNL1        0.0492
      5 C          14.2319   39.0541   11.4504 C.3     1  UNL1        0.0737
      6 N          13.8433   40.2747    9.3458 N.ar    1  UNL1       -0.2159
      7 N          12.1952   40.3729   11.0225 N.ar    1  UNL1       -0.2348
      8 C          10.0955   41.6601   10.7292 C.3     1  UNL1        0.0603
      9 C           9.7268   40.9953   12.0594 C.3     1  UNL1        0.0094
     10 C           8.3188   41.3626   12.5564 C.3     1  UNL1        0.0219
     11 C           7.5422   42.2416   11.5753 C.3     1  UNL1        0.0934
     12 C           9.0077   41.4175    9.6806 C.3     1  UNL1        0.0993
     13 C           6.5108   41.4354    9.4253 C.2     1  UNL1        0.2282
     14 N           7.6759   41.7141   10.2171 N.am    1  UNL1       -0.2791
     15 O           6.6327   40.9515    8.2678 O.2     1  UNL1       -0.2748
     16 C           5.1382   41.7380    9.9378 C.3     1  UNL1        0.1172
     17 C           4.4996   42.8569    9.1320 C.3     1  UNL1        0.1518
     18 C           2.8606   41.4306    9.5129 C.3     1  UNL1        0.1741
     19 O           3.1090   42.7672    9.2054 O.3     1  UNL1       -0.3506
     20 N          13.5625   41.4426    7.2274 N.pl3   1  UNL1       -0.2833
     21 H          13.2784   40.8741    6.4755 H       1  UNL1        0.1550
     22 C          17.7746   43.8733    7.8224 C.3     1  UNL1        0.0521
     23 C          16.4369   43.7609    7.1851 C.ar    1  UNL1        0.0608
     24 C          14.3995   42.5619    6.9132 C.ar    1  UNL1        0.1328
     25 C          13.9371   43.5246    6.0120 C.ar    1  UNL1        0.0344
     26 C          14.7467   44.6184    5.7005 C.ar    1  UNL1        0.0041
     27 C          16.0061   44.7410    6.2890 C.ar    1  UNL1        0.0148
     28 N          15.6331   42.7028    7.4755 N.ar    1  UNL1       -0.2349
@<TRIPOS>BOND
     1    22    23    1
     2    24    28   ar
     3    24    20    1
     4    25    26   ar
     5    27    23   ar
     6     2     6   ar
     7     3     7   ar
     8     4     1   ar
     9     8     3    1
    10     8     9    1
    11     9    10    1
    12    10    11    1
    13    11    14    1
    14    12    14    1
    15    12     8    1
    16    16    13    1
    17    16    17    1
    18    17    19    1
    19    18    19    1
    20     5     2    1
    21    20     1    1
    22    14    13   am
    23    23    28   ar
    24    24    25   ar
    25    26    27   ar
    26     1     6   ar
    27     2     7   ar
    28     3     4   ar
    29    13    15    2
    30    20    21    1
@<TRIPOS>MOLECULE
Molport-020-280-055 MCULE-5859070276 PubChem-110256434
 28 30 0 0 0
SMALL
GASTEIGER

@<TRIPOS>ATOM
      1 C          12.3411   41.6507    7.0430 C.ar    1  UNL1        0.1357
      2 C          10.4872   40.5661    8.0392 C.ar    1  UNL1        0.1406
      3 C          12.6686   40.0142    8.7667 C.ar    1  UNL1        0.0644
      4 C          13.2086   40.9248    7.8587 C.ar    1  UNL1        0.0492
      5 C           9.0171   40.3739    8.1357 C.3     1  UNL1        0.0737
      6 N          10.9984   41.4565    7.1498 N.ar    1  UNL1       -0.2159
      7 N          11.3195   39.8517    8.8405 N.ar    1  UNL1       -0.2348
      8 C          13.5794   39.2279    9.6499 C.3     1  UNL1        0.0603
      9 C          13.2895   39.5167   11.1263 C.3     1  UNL1        0.0094
     10 C          14.2746   38.8316   12.0878 C.3     1  UNL1        0.0219
     11 C          15.3952   38.0790   11.3693 C.3     1  UNL1        0.0934
     12 C          15.0439   39.5208    9.3164 C.3     1  UNL1        0.0993
     13 C          17.3564   39.1660   10.2254 C.2     1  UNL1        0.2282
     14 N          15.9458   38.9070   10.2959 N.am    1  UNL1       -0.2791
     15 O          17.8198   39.9059    9.3162 O.2     1  UNL1       -0.2748
     16 C          18.3053   38.5453   11.2014 C.3     1  UNL1        0.1172
     17 C          19.0537   37.3887   10.5601 C.3     1  UNL1        0.1518
     18 C          18.3035   35.7109    9.3401 C.3     1  UNL1        0.1741
     19 O          18.2908   36.2227   10.6365 O.3     1  UNL1       -0.3506
     20 N          12.8855   42.5884    6.1066 N.pl3   1  UNL1       -0.2833
     21 H          12.3543   42.7692    5.2977 H       1  UNL1        0.1550
     22 C          17.4292   42.8412    7.9219 C.3     1  UNL1        0.0521
     23 C          16.3392   43.4342    7.1044 C.ar    1  UNL1        0.0608
     24 C          14.1290   43.2882    6.2349 C.ar    1  UNL1        0.1328
     25 C          14.2882   44.5156    5.5861 C.ar    1  UNL1        0.0344
     26 C          15.4968   45.2038    5.7061 C.ar    1  UNL1        0.0041
     27 C          16.5321   44.6627    6.4696 C.ar    1  UNL1        0.0148
     28 N          15.1541   42.7793    6.9752 N.ar    1  UNL1       -0.2349
@<TRIPOS>BOND
     1    22    23    1
     2    24    28   ar
     3    24    20    1
     4    25    26   ar
     5    27    23   ar
     6     2     6   ar
     7     3     7   ar
     8     4     1   ar
     9     8     3    1
    10     8     9    1
    11     9    10    1
    12    10    11    1
    13    11    14    1
    14    12    14    1
    15    12     8    1
    16    16    13    1
    17    16    17    1
    18    17    19    1
    19    18    19    1
    20     5     2    1
    21    20     1    1
    22    14    13   am
    23    23    28   ar
    24    24    25   ar
    25    26    27   ar
    26     1     6   ar
    27     2     7   ar
    28     3     4   ar
    29    13    15    2
    30    20    21    1
