@<TRIPOS>MOLECULE
MolPort-020-292-547 MCULE-4697441922 PubChem-110265015
 33 36 0 0 0
SMALL
GASTEIGER

@<TRIPOS>ATOM
      1 C          10.9150   41.5862    9.8017 C.3     1  UNL1        0.0563
      2 C          11.0319   43.1040    9.8326 C.3     1  UNL1        0.0087
      3 C           9.6409   43.7178    9.8199 C.3     1  UNL1        0.0178
      4 C           8.8237   43.1814   11.0011 C.3     1  UNL1        0.0724
      5 C          10.0655   41.0991   10.9818 C.3     1  UNL1        0.0783
      6 N           8.7286   41.7143   11.0032 N.3     1  UNL1       -0.2685
      7 C          14.5442   40.8562    9.0351 C.ar    1  UNL1        0.0517
      8 C          13.2829   41.4581    9.0231 C.ar    1  UNL1        0.0294
      9 C          12.2637   40.9471    9.8311 C.ar    1  UNL1        0.0608
     10 C          13.7203   39.2561   10.6505 C.ar    1  UNL1        0.0602
     11 C          14.7621   39.7432    9.8594 C.ar    1  UNL1        0.0294
     12 C          13.9423   38.0749   11.5247 C.3     1  UNL1        0.0521
     13 N          12.5022   39.8608   10.6197 N.ar    1  UNL1       -0.2539
     14 N          15.5729   41.3983    8.1949 N.pl3   1  UNL1       -0.2981
     15 H          16.4448   40.9421    8.2244 H       1  UNL1        0.1536
     16 C          17.5842   43.4756    8.3387 C.3     1  UNL1        0.0340
     17 C          16.4469   43.5450    7.3782 C.ar    1  UNL1        0.0099
     18 C          15.4774   42.5301    7.3153 C.ar    1  UNL1        0.1281
     19 C          14.3428   43.6997    5.5786 C.ar    1  UNL1        0.1003
     20 C          15.2902   44.7229    5.6129 C.ar    1  UNL1        0.0204
     21 C          16.3466   44.6410    6.5194 C.ar    1  UNL1        0.0001
     22 N          14.4551   42.6381    6.4204 N.ar    1  UNL1       -0.2294
     23 C           7.9423   41.2670    9.8538 C.3     1  UNL1        0.1023
     24 C           6.4831   41.4357   10.1157 C.ar    1  UNL1        0.0322
     25 C           5.6093   41.7293    9.0711 C.ar    1  UNL1        0.0988
     26 C           3.7924   41.7636   10.5827 C.ar    1  UNL1        0.1417
     27 C           5.9639   41.3223   11.4057 C.ar    1  UNL1        0.0988
     28 N           4.2839   41.8882    9.3214 N.ar    1  UNL1       -0.2294
     29 N           4.6323   41.4889   11.6159 N.ar    1  UNL1       -0.2294
     30 C           2.3383   41.9638   10.8389 C.3     1  UNL1        0.0977
     31 C           2.0946   42.3198   12.2961 C.3     1  UNL1        0.1502
     32 C           0.6054   42.7117   13.8760 C.3     1  UNL1        0.1741
     33 O           0.7551   42.6566   12.4899 O.3     1  UNL1       -0.3506
@<TRIPOS>BOND
     1    16    17    1
     2    18    22   ar
     3    18    14    1
     4    19    20   ar
     5    21    17   ar
     6     8     9   ar
     7    10    13   ar
     8    11     7   ar
     9    12    10    1
    10     1     9    1
    11     1     2    1
    12     2     3    1
    13     3     4    1
    14     4     6    1
    15     5     6    1
    16     5     1    1
    17    23     6    1
    18    23    24    1
    19    25    28   ar
    20    26    29   ar
    21    27    24   ar
    22    30    26    1
    23    30    31    1
    24    31    33    1
    25    32    33    1
    26    14     7    1
    27    17    18   ar
    28    19    22   ar
    29    20    21   ar
    30     7     8   ar
    31     9    13   ar
    32    10    11   ar
    33    24    25   ar
    34    26    28   ar
    35    27    29   ar
    36    14    15    1
@<TRIPOS>MOLECULE
MolPort-020-292-547 MCULE-4697441922 PubChem-110265015
 33 36 0 0 0
SMALL
GASTEIGER

@<TRIPOS>ATOM
      1 C          11.5300   41.3892   10.1590 C.3     1  UNL1        0.0563
      2 C          11.4616   42.1931    8.8677 C.3     1  UNL1        0.0087
      3 C          12.7650   42.0300    8.1019 C.3     1  UNL1        0.0178
      4 C          13.0323   40.5434    7.8385 C.3     1  UNL1        0.0724
      5 C          11.8290   39.9177    9.8483 C.3     1  UNL1        0.0783
      6 N          13.0694   39.7478    9.0743 N.3     1  UNL1       -0.2685
      7 C           7.9193   42.1164   11.0108 C.ar    1  UNL1        0.0517
      8 C           9.1102   41.9864   10.2909 C.ar    1  UNL1        0.0294
      9 C          10.2581   41.5113   10.9307 C.ar    1  UNL1        0.0608
     10 C           9.0669   41.3020   12.9776 C.ar    1  UNL1        0.0602
     11 C           7.9007   41.7691   12.3690 C.ar    1  UNL1        0.0294
     12 C           9.0563   40.9347   14.4177 C.3     1  UNL1        0.0521
     13 N          10.2126   41.1851   12.2537 N.ar    1  UNL1       -0.2539
     14 N           6.7554   42.6086   10.3316 N.pl3   1  UNL1       -0.2981
     15 H           6.8566   43.4670    9.8604 H       1  UNL1        0.1536
     16 C           4.7343   43.7631    8.6101 C.3     1  UNL1        0.0340
     17 C           4.4704   42.5464    9.4292 C.ar    1  UNL1        0.0099
     18 C           5.4593   41.9931   10.2599 C.ar    1  UNL1        0.1281
     19 C           3.9516   40.2799   10.9403 C.ar    1  UNL1        0.1003
     20 C           2.9487   40.8016   10.1234 C.ar    1  UNL1        0.0204
     21 C           3.2139   41.9415    9.3652 C.ar    1  UNL1        0.0001
     22 N           5.1707   40.8795   10.9907 N.ar    1  UNL1       -0.2294
     23 C          14.2293   40.1338    9.8775 C.3     1  UNL1        0.1023
     24 C          15.1905   40.9344    9.0644 C.ar    1  UNL1        0.0322
     25 C          16.5558   40.8853    9.3375 C.ar    1  UNL1        0.0988
     26 C          16.9752   42.4144    7.5844 C.ar    1  UNL1        0.1417
     27 C          14.7481   41.7596    8.0300 C.ar    1  UNL1        0.0988
     28 N          17.4216   41.6236    8.5961 N.ar    1  UNL1       -0.2294
     29 N          15.6451   42.4835    7.3114 N.ar    1  UNL1       -0.2294
     30 C          17.9397   43.2335    6.7977 C.3     1  UNL1        0.0977
     31 C          17.2460   43.8910    5.6162 C.3     1  UNL1        0.1502
     32 C          15.5031   45.2415    5.6932 C.3     1  UNL1        0.1741
     33 O          16.8750   45.1952    5.9430 O.3     1  UNL1       -0.3506
@<TRIPOS>BOND
     1    16    17    1
     2    18    22   ar
     3    18    14    1
     4    19    20   ar
     5    21    17   ar
     6     8     9   ar
     7    10    13   ar
     8    11     7   ar
     9    12    10    1
    10     1     9    1
    11     1     2    1
    12     2     3    1
    13     3     4    1
    14     4     6    1
    15     5     6    1
    16     5     1    1
    17    23     6    1
    18    23    24    1
    19    25    28   ar
    20    26    29   ar
    21    27    24   ar
    22    30    26    1
    23    30    31    1
    24    31    33    1
    25    32    33    1
    26    14     7    1
    27    17    18   ar
    28    19    22   ar
    29    20    21   ar
    30     7     8   ar
    31     9    13   ar
    32    10    11   ar
    33    24    25   ar
    34    26    28   ar
    35    27    29   ar
    36    14    15    1
@<TRIPOS>MOLECULE
MolPort-020-292-547 MCULE-4697441922 PubChem-110265015
 33 36 0 0 0
SMALL
GASTEIGER

@<TRIPOS>ATOM
      1 C           9.2269   42.2555    8.4833 C.3     1  UNL1        0.0563
      2 C           9.9378   42.9904    9.6115 C.3     1  UNL1        0.0087
      3 C           8.9095   43.5004   10.6086 C.3     1  UNL1        0.0178
      4 C           8.0636   42.3322   11.1287 C.3     1  UNL1        0.0724
      5 C           8.3710   41.1178    9.0528 C.3     1  UNL1        0.0783
      6 N           7.3958   41.5923   10.0478 N.3     1  UNL1       -0.2685
      7 C          12.5009   41.3853    6.8054 C.ar    1  UNL1        0.0517
      8 C          11.5765   41.8681    7.7359 C.ar    1  UNL1        0.0294
      9 C          10.2081   41.7241    7.4919 C.ar    1  UNL1        0.0608
     10 C          10.6604   40.6424    5.4236 C.ar    1  UNL1        0.0602
     11 C          12.0343   40.7657    5.6374 C.ar    1  UNL1        0.0294
     12 C          10.1577   39.9897    4.1866 C.3     1  UNL1        0.0521
     13 N           9.7824   41.1213    6.3455 N.ar    1  UNL1       -0.2539
     14 N          13.8999   41.5476    7.0781 N.pl3   1  UNL1       -0.2981
     15 H          14.3516   40.7846    7.5060 H       1  UNL1        0.1536
     16 C          16.4093   41.8727    8.4847 C.3     1  UNL1        0.0340
     17 C          15.9365   42.8638    7.4771 C.ar    1  UNL1        0.0099
     18 C          14.7178   42.6951    6.7986 C.ar    1  UNL1        0.1281
     19 C          15.0834   44.7230    5.6049 C.ar    1  UNL1        0.1003
     20 C          16.3002   44.9190    6.2582 C.ar    1  UNL1        0.0204
     21 C          16.7253   43.9815    7.1989 C.ar    1  UNL1        0.0001
     22 N          14.3273   43.6286    5.8857 N.ar    1  UNL1       -0.2294
     23 C           6.3907   42.4438    9.4120 C.3     1  UNL1        0.1023
     24 C           5.0800   42.3271   10.1152 C.ar    1  UNL1        0.0322
     25 C           3.9275   42.8705    9.5519 C.ar    1  UNL1        0.0988
     26 C           2.6580   42.1333   11.4044 C.ar    1  UNL1        0.1417
     27 C           4.9796   41.6916   11.3533 C.ar    1  UNL1        0.0988
     28 N           2.7407   42.7653   10.2036 N.ar    1  UNL1       -0.2294
     29 N           3.7746   41.6073   11.9745 N.ar    1  UNL1       -0.2294
     30 C           1.3502   42.0483   12.1132 C.3     1  UNL1        0.0977
     31 C           1.5464   42.1615   13.6159 C.3     1  UNL1        0.1502
     32 C          -0.3389   43.2945   13.7880 C.3     1  UNL1        0.1741
     33 O           0.3108   42.1546   14.2628 O.3     1  UNL1       -0.3506
@<TRIPOS>BOND
     1    16    17    1
     2    18    22   ar
     3    18    14    1
     4    19    20   ar
     5    21    17   ar
     6     8     9   ar
     7    10    13   ar
     8    11     7   ar
     9    12    10    1
    10     1     9    1
    11     1     2    1
    12     2     3    1
    13     3     4    1
    14     4     6    1
    15     5     6    1
    16     5     1    1
    17    23     6    1
    18    23    24    1
    19    25    28   ar
    20    26    29   ar
    21    27    24   ar
    22    30    26    1
    23    30    31    1
    24    31    33    1
    25    32    33    1
    26    14     7    1
    27    17    18   ar
    28    19    22   ar
    29    20    21   ar
    30     7     8   ar
    31     9    13   ar
    32    10    11   ar
    33    24    25   ar
    34    26    28   ar
    35    27    29   ar
    36    14    15    1
@<TRIPOS>MOLECULE
MolPort-020-292-547 MCULE-4697441922 PubChem-110265015
 33 36 0 0 0
SMALL
GASTEIGER

@<TRIPOS>ATOM
      1 C          10.6650   41.8762    9.5879 C.3     1  UNL1        0.0563
      2 C          10.3884   42.7989   10.7671 C.3     1  UNL1        0.0087
      3 C           8.9956   43.3925   10.6278 C.3     1  UNL1        0.0178
      4 C           7.9580   42.2686   10.5234 C.3     1  UNL1        0.0724
      5 C           9.5869   40.7889    9.5056 C.3     1  UNL1        0.0783
      6 N           8.2296   41.3499    9.4082 N.3     1  UNL1       -0.2685
      7 C          14.2762   41.0218    8.8661 C.ar    1  UNL1        0.0517
      8 C          13.0094   41.6055    8.7757 C.ar    1  UNL1        0.0294
      9 C          12.0199   41.2598    9.6998 C.ar    1  UNL1        0.0608
     10 C          13.5163   39.7677   10.7892 C.ar    1  UNL1        0.0602
     11 C          14.5293   40.0932    9.8856 C.ar    1  UNL1        0.0294
     12 C          13.7756   38.7820   11.8708 C.3     1  UNL1        0.0521
     13 N          12.2923   40.3505   10.6785 N.ar    1  UNL1       -0.2539
     14 N          15.2740   41.3917    7.9040 N.pl3   1  UNL1       -0.2981
     15 H          15.9865   40.7323    7.7400 H       1  UNL1        0.1536
     16 C          17.5906   43.0991    8.2194 C.3     1  UNL1        0.0340
     17 C          16.4722   43.4503    7.2992 C.ar    1  UNL1        0.0099
     18 C          15.3534   42.6133    7.1522 C.ar    1  UNL1        0.1281
     19 C          14.4071   44.1282    5.5772 C.ar    1  UNL1        0.1003
     20 C          15.5051   44.9801    5.6972 C.ar    1  UNL1        0.0204
     21 C          16.5413   44.6352    6.5642 C.ar    1  UNL1        0.0001
     22 N          14.3551   42.9771    6.2985 N.ar    1  UNL1       -0.2294
     23 C           8.0568   42.0505    8.1358 C.3     1  UNL1        0.1023
     24 C           8.6700   41.2739    7.0191 C.ar    1  UNL1        0.0322
     25 C           8.4299   39.9070    6.8967 C.ar    1  UNL1        0.0988
     26 C           9.8034   39.8241    4.9747 C.ar    1  UNL1        0.1417
     27 C           9.5070   41.8885    6.0873 C.ar    1  UNL1        0.0988
     28 N           8.9988   39.2078    5.8808 N.ar    1  UNL1       -0.2294
     29 N          10.0580   41.1550    5.0856 N.ar    1  UNL1       -0.2294
     30 C          10.4354   39.0342    3.8808 C.3     1  UNL1        0.0977
     31 C           9.3852   38.5431    2.8983 C.3     1  UNL1        0.1502
     32 C          10.4208   36.6653    3.4170 C.3     1  UNL1        0.1741
     33 O           9.1694   37.1760    3.0706 O.3     1  UNL1       -0.3506
@<TRIPOS>BOND
     1    16    17    1
     2    18    22   ar
     3    18    14    1
     4    19    20   ar
     5    21    17   ar
     6     8     9   ar
     7    10    13   ar
     8    11     7   ar
     9    12    10    1
    10     1     9    1
    11     1     2    1
    12     2     3    1
    13     3     4    1
    14     4     6    1
    15     5     6    1
    16     5     1    1
    17    23     6    1
    18    23    24    1
    19    25    28   ar
    20    26    29   ar
    21    27    24   ar
    22    30    26    1
    23    30    31    1
    24    31    33    1
    25    32    33    1
    26    14     7    1
    27    17    18   ar
    28    19    22   ar
    29    20    21   ar
    30     7     8   ar
    31     9    13   ar
    32    10    11   ar
    33    24    25   ar
    34    26    28   ar
    35    27    29   ar
    36    14    15    1
@<TRIPOS>MOLECULE
MolPort-020-292-547 MCULE-4697441922 PubChem-110265015
 33 36 0 0 0
SMALL
GASTEIGER

@<TRIPOS>ATOM
      1 C          10.1476   42.0543    9.4871 C.3     1  UNL1        0.0563
      2 C           9.9499   42.9754   10.6833 C.3     1  UNL1        0.0087
      3 C           8.5240   43.5032   10.6838 C.3     1  UNL1        0.0178
      4 C           7.5346   42.3320   10.6922 C.3     1  UNL1        0.0724
      5 C           9.1185   40.9180    9.5213 C.3     1  UNL1        0.0783
      6 N           7.7338   41.4153    9.5601 N.3     1  UNL1       -0.2685
      7 C          13.6881   41.3239    8.3811 C.ar    1  UNL1        0.0517
      8 C          12.3931   41.8485    8.4171 C.ar    1  UNL1        0.0294
      9 C          11.5341   41.5017    9.4633 C.ar    1  UNL1        0.0608
     10 C          13.2151   40.1239   10.4268 C.ar    1  UNL1        0.0602
     11 C          14.1007   40.4524    9.3989 C.ar    1  UNL1        0.0294
     12 C          13.6437   39.1984   11.5078 C.3     1  UNL1        0.0521
     13 N          11.9602   40.6486   10.4377 N.ar    1  UNL1       -0.2539
     14 N          14.5498   41.6935    7.2952 N.pl3   1  UNL1       -0.2981
     15 H          14.3165   41.3294    6.4108 H       1  UNL1        0.1536
     16 C          14.7883   43.9026    5.4393 C.3     1  UNL1        0.0340
     17 C          15.8407   43.6072    6.4524 C.ar    1  UNL1        0.0099
     18 C          15.7138   42.5337    7.3498 C.ar    1  UNL1        0.1281
     19 C          17.8140   43.0832    8.3288 C.ar    1  UNL1        0.1003
     20 C          17.9696   44.1590    7.4548 C.ar    1  UNL1        0.0204
     21 C          16.9748   44.4189    6.5128 C.ar    1  UNL1        0.0001
     22 N          16.7030   42.3028    8.2585 N.ar    1  UNL1       -0.2294
     23 C           7.3998   42.0942    8.3082 C.3     1  UNL1        0.1023
     24 C           7.8849   41.3078    7.1367 C.ar    1  UNL1        0.0322
     25 C           8.9102   41.8015    6.3328 C.ar    1  UNL1        0.0988
     26 C           8.7822   39.8779    4.9650 C.ar    1  UNL1        0.1417
     27 C           7.3165   40.0766    6.8089 C.ar    1  UNL1        0.0988
     28 N           9.3395   41.0813    5.2644 N.ar    1  UNL1       -0.2294
     29 N           7.7728   39.3862    5.7317 N.ar    1  UNL1       -0.2294
     30 C           9.2528   39.1142    3.7754 C.3     1  UNL1        0.0977
     31 C          10.7693   39.1474    3.6824 C.3     1  UNL1        0.1502
     32 C          10.1258   37.0641    3.3460 C.3     1  UNL1        0.1741
     33 O          11.2642   37.8630    3.4574 O.3     1  UNL1       -0.3506
@<TRIPOS>BOND
     1    16    17    1
     2    18    22   ar
     3    18    14    1
     4    19    20   ar
     5    21    17   ar
     6     8     9   ar
     7    10    13   ar
     8    11     7   ar
     9    12    10    1
    10     1     9    1
    11     1     2    1
    12     2     3    1
    13     3     4    1
    14     4     6    1
    15     5     6    1
    16     5     1    1
    17    23     6    1
    18    23    24    1
    19    25    28   ar
    20    26    29   ar
    21    27    24   ar
    22    30    26    1
    23    30    31    1
    24    31    33    1
    25    32    33    1
    26    14     7    1
    27    17    18   ar
    28    19    22   ar
    29    20    21   ar
    30     7     8   ar
    31     9    13   ar
    32    10    11   ar
    33    24    25   ar
    34    26    28   ar
    35    27    29   ar
    36    14    15    1
@<TRIPOS>MOLECULE
MolPort-020-292-547 MCULE-4697441922 PubChem-110265015
 33 36 0 0 0
SMALL
GASTEIGER

@<TRIPOS>ATOM
      1 C          13.0316   38.2094    8.8534 C.3     1  UNL1        0.0563
      2 C          12.2499   38.1343   10.1578 C.3     1  UNL1        0.0087
      3 C          12.7657   36.9705   10.9892 C.3     1  UNL1        0.0178
      4 C          14.2712   37.1296   11.2313 C.3     1  UNL1        0.0724
      5 C          14.5317   38.3368    9.1447 C.3     1  UNL1        0.0783
      6 N          15.0370   37.2358    9.9807 N.3     1  UNL1       -0.2685
      7 C          12.9710   41.5310    7.0493 C.ar    1  UNL1        0.0517
      8 C          13.4077   40.4500    7.8200 C.ar    1  UNL1        0.0294
      9 C          12.5638   39.3537    8.0168 C.ar    1  UNL1        0.0608
     10 C          10.8680   40.3864    6.7091 C.ar    1  UNL1        0.0602
     11 C          11.6864   41.4956    6.4887 C.ar    1  UNL1        0.0294
     12 C           9.5038   40.3425    6.1209 C.3     1  UNL1        0.0521
     13 N          11.3178   39.3477    7.4633 N.ar    1  UNL1       -0.2539
     14 N          13.8553   42.6454    6.8643 N.pl3   1  UNL1       -0.2981
     15 H          13.4963   43.4061    6.3527 H       1  UNL1        0.1536
     16 C          15.4373   44.9149    6.0107 C.3     1  UNL1        0.0340
     17 C          15.9817   43.8757    6.9298 C.ar    1  UNL1        0.0099
     18 C          15.2045   42.7793    7.3394 C.ar    1  UNL1        0.1281
     19 C          17.0205   41.9586    8.6430 C.ar    1  UNL1        0.1003
     20 C          17.8180   43.0365    8.2585 C.ar    1  UNL1        0.0204
     21 C          17.2915   43.9981    7.3969 C.ar    1  UNL1        0.0001
     22 N          15.7463   41.8541    8.1808 N.ar    1  UNL1       -0.2294
     23 C          14.9725   35.9697    9.2512 C.3     1  UNL1        0.1023
     24 C          16.0954   35.8667    8.2741 C.ar    1  UNL1        0.0322
     25 C          15.8481   35.5002    6.9529 C.ar    1  UNL1        0.0988
     26 C          18.1551   35.6586    6.4630 C.ar    1  UNL1        0.1417
     27 C          17.4129   36.1154    8.6602 C.ar    1  UNL1        0.0988
     28 N          16.8782   35.4023    6.0733 N.ar    1  UNL1       -0.2294
     29 N          18.4163   36.0061    7.7512 N.ar    1  UNL1       -0.2294
     30 C          19.2733   35.5236    5.4875 C.3     1  UNL1        0.0977
     31 C          19.0967   34.2753    4.6389 C.3     1  UNL1        0.1502
     32 C          18.1009   34.6536    2.7069 C.3     1  UNL1        0.1741
     33 O          19.3605   34.5643    3.3002 O.3     1  UNL1       -0.3506
@<TRIPOS>BOND
     1    16    17    1
     2    18    22   ar
     3    18    14    1
     4    19    20   ar
     5    21    17   ar
     6     8     9   ar
     7    10    13   ar
     8    11     7   ar
     9    12    10    1
    10     1     9    1
    11     1     2    1
    12     2     3    1
    13     3     4    1
    14     4     6    1
    15     5     6    1
    16     5     1    1
    17    23     6    1
    18    23    24    1
    19    25    28   ar
    20    26    29   ar
    21    27    24   ar
    22    30    26    1
    23    30    31    1
    24    31    33    1
    25    32    33    1
    26    14     7    1
    27    17    18   ar
    28    19    22   ar
    29    20    21   ar
    30     7     8   ar
    31     9    13   ar
    32    10    11   ar
    33    24    25   ar
    34    26    28   ar
    35    27    29   ar
    36    14    15    1
@<TRIPOS>MOLECULE
MolPort-020-292-547 MCULE-4697441922 PubChem-110265015
 33 36 0 0 0
SMALL
GASTEIGER

@<TRIPOS>ATOM
      1 C          12.1634   39.8189    9.8009 C.3     1  UNL1        0.0563
      2 C          11.6657   38.6842    8.9160 C.3     1  UNL1        0.0087
      3 C          10.1466   38.7168    8.8600 C.3     1  UNL1        0.0178
      4 C           9.6728   40.0858    8.3579 C.3     1  UNL1        0.0724
      5 C          11.6403   41.1624    9.2789 C.3     1  UNL1        0.0783
      6 N          10.1719   41.1949    9.1838 N.3     1  UNL1       -0.2685
      7 C          15.7661   40.7438    9.1253 C.ar    1  UNL1        0.0517
      8 C          14.3692   40.7377    9.0801 C.ar    1  UNL1        0.0294
      9 C          13.6547   39.8294    9.8657 C.ar    1  UNL1        0.0608
     10 C          15.6816   38.9345   10.7278 C.ar    1  UNL1        0.0602
     11 C          16.4266   39.8310    9.9597 C.ar    1  UNL1        0.0294
     12 C          16.3743   37.9617   11.6125 C.3     1  UNL1        0.0521
     13 N          14.3230   38.9499   10.6649 N.ar    1  UNL1       -0.2539
     14 N          16.4765   41.6844    8.3075 N.pl3   1  UNL1       -0.2981
     15 H          17.4590   41.6541    8.3621 H       1  UNL1        0.1536
     16 C          17.9425   44.1288    7.8003 C.3     1  UNL1        0.0340
     17 C          16.6215   43.8562    7.1666 C.ar    1  UNL1        0.0099
     18 C          15.9194   42.6655    7.4182 C.ar    1  UNL1        0.1281
     19 C          14.1662   43.3749    5.9711 C.ar    1  UNL1        0.1003
     20 C          14.8385   44.5659    5.6972 C.ar    1  UNL1        0.0204
     21 C          16.0729   44.8037    6.3006 C.ar    1  UNL1        0.0001
     22 N          14.7142   42.4612    6.8156 N.ar    1  UNL1       -0.2294
     23 C           9.5724   41.1291   10.5164 C.3     1  UNL1        0.1023
     24 C           8.1041   41.3843   10.4470 C.ar    1  UNL1        0.0322
     25 C           7.3573   41.5239   11.6148 C.ar    1  UNL1        0.0988
     26 C           5.3940   41.8415   10.3375 C.ar    1  UNL1        0.1417
     27 C           7.4441   41.4712    9.2208 C.ar    1  UNL1        0.0988
     28 N           6.0200   41.7487   11.5407 N.ar    1  UNL1       -0.2294
     29 N           6.1049   41.6963    9.1879 N.ar    1  UNL1       -0.2294
     30 C           3.9222   42.0664   10.2788 C.3     1  UNL1        0.0977
     31 C           3.5648   42.9758    9.1149 C.3     1  UNL1        0.1502
     32 C           4.1125   44.7505    7.9240 C.3     1  UNL1        0.1741
     33 O           4.3428   44.1327    9.1537 O.3     1  UNL1       -0.3506
@<TRIPOS>BOND
     1    16    17    1
     2    18    22   ar
     3    18    14    1
     4    19    20   ar
     5    21    17   ar
     6     8     9   ar
     7    10    13   ar
     8    11     7   ar
     9    12    10    1
    10     1     9    1
    11     1     2    1
    12     2     3    1
    13     3     4    1
    14     4     6    1
    15     5     6    1
    16     5     1    1
    17    23     6    1
    18    23    24    1
    19    25    28   ar
    20    26    29   ar
    21    27    24   ar
    22    30    26    1
    23    30    31    1
    24    31    33    1
    25    32    33    1
    26    14     7    1
    27    17    18   ar
    28    19    22   ar
    29    20    21   ar
    30     7     8   ar
    31     9    13   ar
    32    10    11   ar
    33    24    25   ar
    34    26    28   ar
    35    27    29   ar
    36    14    15    1
@<TRIPOS>MOLECULE
MolPort-020-292-547 MCULE-4697441922 PubChem-110265015
 33 36 0 0 0
SMALL
GASTEIGER

@<TRIPOS>ATOM
      1 C          11.6776   40.8950   10.1670 C.3     1  UNL1        0.0563
      2 C          11.4400   40.9841    8.6657 C.3     1  UNL1        0.0087
      3 C          12.7280   40.6497    7.9301 C.3     1  UNL1        0.0178
      4 C          13.2231   39.2609    8.3509 C.3     1  UNL1        0.0724
      5 C          12.2000   39.5013   10.5359 C.3     1  UNL1        0.0783
      6 N          13.4266   39.1490    9.8026 N.3     1  UNL1       -0.2685
      7 C           8.1532   42.0189   10.9464 C.ar    1  UNL1        0.0517
      8 C           9.3223   41.7176   10.2422 C.ar    1  UNL1        0.0294
      9 C          10.4274   41.2004   10.9234 C.ar    1  UNL1        0.0608
     10 C           9.2371   41.2846   12.9798 C.ar    1  UNL1        0.0602
     11 C           8.1133   41.7984   12.3304 C.ar    1  UNL1        0.0294
     12 C           9.2040   41.0509   14.4471 C.3     1  UNL1        0.0521
     13 N          10.3623   41.0001   12.2704 N.ar    1  UNL1       -0.2539
     14 N           7.0334   42.5510   10.2245 N.pl3   1  UNL1       -0.2981
     15 H           7.2120   43.3402    9.6638 H       1  UNL1        0.1536
     16 C           6.0776   41.0233    7.9587 C.3     1  UNL1        0.0340
     17 C           5.2068   41.3242    9.1301 C.ar    1  UNL1        0.0099
     18 C           5.6816   42.0649   10.2255 C.ar    1  UNL1        0.1281
     19 C           3.5644   41.8666   11.2975 C.ar    1  UNL1        0.1003
     20 C           3.0625   41.1256   10.2276 C.ar    1  UNL1        0.0204
     21 C           3.8920   40.8552    9.1398 C.ar    1  UNL1        0.0001
     22 N           4.8475   42.3151   11.2740 N.ar    1  UNL1       -0.2294
     23 C          14.5338   40.0111   10.2156 C.3     1  UNL1        0.1023
     24 C          15.8027   39.2316   10.3073 C.ar    1  UNL1        0.0322
     25 C          17.0199   39.8266    9.9826 C.ar    1  UNL1        0.0988
     26 C          18.1499   37.8056   10.4574 C.ar    1  UNL1        0.1417
     27 C          15.8003   37.8929   10.7002 C.ar    1  UNL1        0.0988
     28 N          18.1684   39.1063   10.0623 N.ar    1  UNL1       -0.2294
     29 N          16.9699   37.2054   10.7669 N.ar    1  UNL1       -0.2294
     30 C          19.4188   37.0268   10.5167 C.3     1  UNL1        0.0977
     31 C          19.5704   36.1539    9.2820 C.3     1  UNL1        0.1502
     32 C          19.6522   36.2769    7.0807 C.3     1  UNL1        0.1741
     33 O          18.9534   36.7597    8.1877 O.3     1  UNL1       -0.3506
@<TRIPOS>BOND
     1    16    17    1
     2    18    22   ar
     3    18    14    1
     4    19    20   ar
     5    21    17   ar
     6     8     9   ar
     7    10    13   ar
     8    11     7   ar
     9    12    10    1
    10     1     9    1
    11     1     2    1
    12     2     3    1
    13     3     4    1
    14     4     6    1
    15     5     6    1
    16     5     1    1
    17    23     6    1
    18    23    24    1
    19    25    28   ar
    20    26    29   ar
    21    27    24   ar
    22    30    26    1
    23    30    31    1
    24    31    33    1
    25    32    33    1
    26    14     7    1
    27    17    18   ar
    28    19    22   ar
    29    20    21   ar
    30     7     8   ar
    31     9    13   ar
    32    10    11   ar
    33    24    25   ar
    34    26    28   ar
    35    27    29   ar
    36    14    15    1
@<TRIPOS>MOLECULE
MolPort-020-292-547 MCULE-4697441922 PubChem-110265015
 33 36 0 0 0
SMALL
GASTEIGER

@<TRIPOS>ATOM
      1 C          14.0511   37.2115    9.8964 C.3     1  UNL1        0.0563
      2 C          13.1200   36.0074    9.9372 C.3     1  UNL1        0.0087
      3 C          11.7250   36.4614   10.3368 C.3     1  UNL1        0.0178
      4 C          11.2284   37.5375    9.3642 C.3     1  UNL1        0.0724
      5 C          13.4991   38.2720    8.9361 C.3     1  UNL1        0.0783
      6 N          12.1338   38.6934    9.2893 N.3     1  UNL1       -0.2685
      7 C          16.9096   35.7880    7.8730 C.ar    1  UNL1        0.0517
      8 C          15.6242   36.1827    8.2544 C.ar    1  UNL1        0.0294
      9 C          15.4289   36.8062    9.4896 C.ar    1  UNL1        0.0608
     10 C          17.7514   36.6450    9.9719 C.ar    1  UNL1        0.0602
     11 C          17.9830   36.0235    8.7436 C.ar    1  UNL1        0.0294
     12 C          18.8834   36.8954   10.9018 C.3     1  UNL1        0.0521
     13 N          16.4904   37.0189   10.3185 N.ar    1  UNL1       -0.2539
     14 N          17.0833   35.1477    6.6010 N.pl3   1  UNL1       -0.2981
     15 H          16.9973   34.1670    6.5917 H       1  UNL1        0.1536
     16 C          15.1527   34.9442    4.4532 C.3     1  UNL1        0.0340
     17 C          16.4393   35.6783    4.2895 C.ar    1  UNL1        0.0099
     18 C          17.3683   35.7726    5.3392 C.ar    1  UNL1        0.1281
     19 C          18.8243   37.0533    3.9568 C.ar    1  UNL1        0.1003
     20 C          17.9223   36.9816    2.8952 C.ar    1  UNL1        0.0204
     21 C          16.7242   36.2891    3.0670 C.ar    1  UNL1        0.0001
     22 N          18.5318   36.4545    5.1417 N.ar    1  UNL1       -0.2294
     23 C          12.1339   39.4063   10.5666 C.3     1  UNL1        0.1023
     24 C          11.3861   40.6923   10.4524 C.ar    1  UNL1        0.0322
     25 C          10.2577   40.9229   11.2362 C.ar    1  UNL1        0.0988
     26 C           9.9877   43.0517   10.2449 C.ar    1  UNL1        0.1417
     27 C          11.7845   41.6810    9.5522 C.ar    1  UNL1        0.0988
     28 N           9.5798   42.0940   11.1193 N.ar    1  UNL1       -0.2294
     29 N          11.0799   42.8389    9.4638 N.ar    1  UNL1       -0.2294
     30 C           9.2167   44.3203   10.1164 C.3     1  UNL1        0.0977
     31 C           8.0493   44.1436    9.1596 C.3     1  UNL1        0.1502
     32 C           7.2985   43.1879    7.3183 C.3     1  UNL1        0.1741
     33 O           8.3054   43.0925    8.2795 O.3     1  UNL1       -0.3506
@<TRIPOS>BOND
     1    16    17    1
     2    18    22   ar
     3    18    14    1
     4    19    20   ar
     5    21    17   ar
     6     8     9   ar
     7    10    13   ar
     8    11     7   ar
     9    12    10    1
    10     1     9    1
    11     1     2    1
    12     2     3    1
    13     3     4    1
    14     4     6    1
    15     5     6    1
    16     5     1    1
    17    23     6    1
    18    23    24    1
    19    25    28   ar
    20    26    29   ar
    21    27    24   ar
    22    30    26    1
    23    30    31    1
    24    31    33    1
    25    32    33    1
    26    14     7    1
    27    17    18   ar
    28    19    22   ar
    29    20    21   ar
    30     7     8   ar
    31     9    13   ar
    32    10    11   ar
    33    24    25   ar
    34    26    28   ar
    35    27    29   ar
    36    14    15    1
@<TRIPOS>MOLECULE
MolPort-020-292-547 MCULE-4697441922 PubChem-110265015
 33 36 0 0 0
SMALL
GASTEIGER

@<TRIPOS>ATOM
      1 C          11.1281   39.8479    7.5143 C.3     1  UNL1        0.0563
      2 C          10.3191   38.5616    7.6100 C.3     1  UNL1        0.0087
      3 C           8.9468   38.7812    6.9932 C.3     1  UNL1        0.0178
      4 C           9.0971   39.2576    5.5436 C.3     1  UNL1        0.0724
      5 C          11.2254   40.3015    6.0528 C.3     1  UNL1        0.0783
      6 N           9.9034   40.4818    5.4314 N.3     1  UNL1       -0.2685
      7 C          14.6180   40.6042    8.7555 C.ar    1  UNL1        0.0517
      8 C          13.3356   40.7705    8.2251 C.ar    1  UNL1        0.0294
      9 C          12.4908   39.6650    8.0954 C.ar    1  UNL1        0.0608
     10 C          14.1667   38.2407    8.9984 C.ar    1  UNL1        0.0602
     11 C          15.0350   39.3238    9.1459 C.ar    1  UNL1        0.0294
     12 C          14.6023   36.8798    9.4069 C.3     1  UNL1        0.0521
     13 N          12.9239   38.4304    8.4791 N.ar    1  UNL1       -0.2539
     14 N          15.4668   41.7545    8.8760 N.pl3   1  UNL1       -0.2981
     15 H          15.6192   42.0895    9.7891 H       1  UNL1        0.1536
     16 C          13.8684   43.2794    7.0048 C.3     1  UNL1        0.0340
     17 C          15.3539   43.2152    6.9030 C.ar    1  UNL1        0.0099
     18 C          16.1201   42.4737    7.8179 C.ar    1  UNL1        0.1281
     19 C          18.1169   43.1162    6.6904 C.ar    1  UNL1        0.1003
     20 C          17.3863   43.8645    5.7675 C.ar    1  UNL1        0.0204
     21 C          15.9971   43.9115    5.8782 C.ar    1  UNL1        0.0001
     22 N          17.4761   42.4447    7.6838 N.ar    1  UNL1       -0.2294
     23 C           9.1951   41.6004    6.0533 C.3     1  UNL1        0.1023
     24 C           9.3502   41.5628    7.5368 C.ar    1  UNL1        0.0322
     25 C           8.4273   40.8778    8.3243 C.ar    1  UNL1        0.0988
     26 C           9.6129   41.4947   10.2739 C.ar    1  UNL1        0.1417
     27 C          10.4047   42.2223    8.1690 C.ar    1  UNL1        0.0988
     28 N           8.5734   40.8558    9.6744 N.ar    1  UNL1       -0.2294
     29 N          10.5164   42.1777    9.5220 N.ar    1  UNL1       -0.2294
     30 C           9.7423   41.4768   11.7582 C.3     1  UNL1        0.0977
     31 C           8.3775   41.3461   12.4138 C.3     1  UNL1        0.1502
     32 C           9.8834   41.2283   14.0219 C.3     1  UNL1        0.1741
     33 O           8.5105   41.3452   13.8022 O.3     1  UNL1       -0.3506
@<TRIPOS>BOND
     1    16    17    1
     2    18    22   ar
     3    18    14    1
     4    19    20   ar
     5    21    17   ar
     6     8     9   ar
     7    10    13   ar
     8    11     7   ar
     9    12    10    1
    10     1     9    1
    11     1     2    1
    12     2     3    1
    13     3     4    1
    14     4     6    1
    15     5     6    1
    16     5     1    1
    17    23     6    1
    18    23    24    1
    19    25    28   ar
    20    26    29   ar
    21    27    24   ar
    22    30    26    1
    23    30    31    1
    24    31    33    1
    25    32    33    1
    26    14     7    1
    27    17    18   ar
    28    19    22   ar
    29    20    21   ar
    30     7     8   ar
    31     9    13   ar
    32    10    11   ar
    33    24    25   ar
    34    26    28   ar
    35    27    29   ar
    36    14    15    1
