@<TRIPOS>MOLECULE
MolPort-006-609-964 ChemDiv-V020-9513 MCULE-5221763621 PubChem-46070048 ZINC000034735459 ZINC34735459
 35 38 0 0 0
SMALL
GASTEIGER

@<TRIPOS>ATOM
      1 C           7.7530   40.4969    7.0372 C.ar    1  UNL1        0.0516
      2 C           8.7731   40.1253    7.9171 C.ar    1  UNL1        0.0296
      3 C           9.8408   39.3169    7.4915 C.ar    1  UNL1        0.0565
      4 C           9.8757   38.8972    6.1510 C.ar    1  UNL1        0.0150
      5 C           8.8618   39.2643    5.2639 C.ar    1  UNL1        0.0026
      6 C           7.8039   40.0609    5.7057 C.ar    1  UNL1        0.0148
      7 C          10.9625   37.6031    8.9398 C.3     1  UNL1        0.1015
      8 C          12.4019   37.1189    8.9788 C.3     1  UNL1        0.0435
      9 C          13.2243   38.0125    9.9031 C.3     1  UNL1        0.0971
     10 C          11.8998   39.9025    8.8511 C.2     1  UNL1        0.3112
     11 O          11.7711   41.1351    8.6133 O.2     1  UNL1       -0.2520
     12 N          10.9084   38.9593    8.3957 N.am    1  UNL1       -0.2430
     13 N          13.0317   39.4354    9.6099 N.am    1  UNL1       -0.2596
     14 C          13.9504   40.3891   10.2210 C.3     1  UNL1        0.1217
     15 C          14.6940   41.1437    9.1713 C.ar    1  UNL1       -0.0022
     16 C          16.0751   41.3266    9.2969 C.ar    1  UNL1       -0.0019
     17 C          16.7755   42.0471    8.3249 C.ar    1  UNL1        0.0100
     18 C          16.0963   42.5895    7.2284 C.ar    1  UNL1        0.0684
     19 C          14.7154   42.4096    7.1022 C.ar    1  UNL1        0.0100
     20 C          14.0145   41.6873    8.0737 C.ar    1  UNL1       -0.0019
     21 C          16.8191   43.3286    6.2327 C.1     1  UNL1        0.1004
     22 N          17.4017   43.9218    5.4267 N.1     1  UNL1       -0.1908
     23 C           6.7565   42.7108    7.8642 C.2     1  UNL1        0.2305
     24 O           7.8297   43.3595    7.7418 O.2     1  UNL1       -0.2744
     25 N           6.6851   41.3185    7.5287 N.am    1  UNL1       -0.2836
     26 H           5.8114   40.8807    7.6482 H       1  UNL1        0.1549
     27 C           5.5454   43.3951    8.3997 C.3     1  UNL1        0.1117
     28 C           3.1416   42.1213   11.0415 C.ar    1  UNL1        0.1384
     29 C           3.6681   42.8359    9.9605 C.ar    1  UNL1        0.0331
     30 C           4.9982   42.6471    9.5672 C.ar    1  UNL1       -0.0101
     31 C           5.8050   41.7323   10.2520 C.ar    1  UNL1       -0.0036
     32 C           5.2849   41.0131   11.3319 C.ar    1  UNL1        0.0028
     33 C           3.9573   41.2045   11.7256 C.ar    1  UNL1        0.0369
     34 C           1.4043   42.4430   12.7712 C.3     1  UNL1        0.2525
     35 O           1.8130   42.3385   11.4129 O.3     1  UNL1       -0.4714
@<TRIPOS>BOND
     1    34    35    1
     2    28    35    1
     3    29    30   ar
     4    27    30    1
     5    27    23    1
     6    23    25   am
     7     2     3   ar
     8     3    12    1
     9     4     5   ar
    10     6     1   ar
    11     7    12    1
    12     7     8    1
    13     8     9    1
    14     9    13    1
    15    14    13    1
    16    14    15    1
    17    16    17   ar
    18    18    19   ar
    19    18    21    1
    20    20    15   ar
    21    10    12   am
    22    31    32   ar
    23    33    28   ar
    24    25     1    1
    25    13    10   am
    26    28    29   ar
    27    30    31   ar
    28    23    24    2
    29     1     2   ar
    30     3     4   ar
    31     5     6   ar
    32    15    16   ar
    33    17    18   ar
    34    19    20   ar
    35    10    11    2
    36    32    33   ar
    37    21    22    3
    38    25    26    1
@<TRIPOS>MOLECULE
MolPort-006-609-964 ChemDiv-V020-9513 MCULE-5221763621 PubChem-46070048 ZINC000034735459 ZINC34735459
 35 38 0 0 0
SMALL
GASTEIGER

@<TRIPOS>ATOM
      1 C          11.0078   37.9137    9.4904 C.ar    1  UNL1        0.0516
      2 C          12.3685   38.2304    9.4545 C.ar    1  UNL1        0.0296
      3 C          13.3239   37.4005   10.0653 C.ar    1  UNL1        0.0565
      4 C          12.8877   36.2280   10.7050 C.ar    1  UNL1        0.0150
      5 C          11.5305   35.9022   10.7452 C.ar    1  UNL1        0.0026
      6 C          10.5938   36.7425   10.1405 C.ar    1  UNL1        0.0148
      7 C          15.7075   36.6277    9.9465 C.3     1  UNL1        0.1015
      8 C          16.8234   36.9824    8.9786 C.3     1  UNL1        0.0435
      9 C          17.5577   38.2275    9.4682 C.3     1  UNL1        0.0971
     10 C          15.2372   39.0650   10.0572 C.2     1  UNL1        0.3112
     11 O          14.4719   40.0263   10.3446 O.2     1  UNL1       -0.2520
     12 N          14.7316   37.7154   10.0007 N.am    1  UNL1       -0.2430
     13 N          16.6349   39.3128    9.8119 N.am    1  UNL1       -0.2596
     14 C          17.1945   40.6418   10.0303 C.3     1  UNL1        0.1217
     15 C          16.7463   41.5793    8.9606 C.ar    1  UNL1       -0.0022
     16 C          17.5828   42.6275    8.5629 C.ar    1  UNL1       -0.0019
     17 C          17.1619   43.5197    7.5723 C.ar    1  UNL1        0.0100
     18 C          15.9030   43.3684    6.9809 C.ar    1  UNL1        0.0684
     19 C          15.0644   42.3226    7.3785 C.ar    1  UNL1        0.0100
     20 C          15.4859   41.4286    8.3685 C.ar    1  UNL1       -0.0019
     21 C          15.4746   44.2866    5.9642 C.1     1  UNL1        0.1004
     22 N          15.1252   45.0260    5.1443 N.1     1  UNL1       -0.1908
     23 C          10.3058   40.1689    8.4909 C.2     1  UNL1        0.2305
     24 O          11.4122   40.7295    8.7127 O.2     1  UNL1       -0.2744
     25 N          10.0773   38.8010    8.8549 N.am    1  UNL1       -0.2836
     26 H           9.1885   38.4322    8.6469 H       1  UNL1        0.1549
     27 C           9.2011   40.9523    7.8681 C.3     1  UNL1        0.1117
     28 C           7.3379   41.6533   11.0956 C.ar    1  UNL1        0.1384
     29 C           8.3752   41.4442   10.1810 C.ar    1  UNL1        0.0331
     30 C           8.0903   41.1510    8.8421 C.ar    1  UNL1       -0.0101
     31 C           6.7614   41.0749    8.4121 C.ar    1  UNL1       -0.0036
     32 C           5.7197   41.2848    9.3203 C.ar    1  UNL1        0.0028
     33 C           6.0052   41.5748   10.6576 C.ar    1  UNL1        0.0369
     34 C           8.7445   41.3194   13.1015 C.3     1  UNL1        0.2525
     35 O           7.6560   41.9368   12.4256 O.3     1  UNL1       -0.4714
@<TRIPOS>BOND
     1    34    35    1
     2    28    35    1
     3    29    30   ar
     4    27    30    1
     5    27    23    1
     6    23    25   am
     7     2     3   ar
     8     3    12    1
     9     4     5   ar
    10     6     1   ar
    11     7    12    1
    12     7     8    1
    13     8     9    1
    14     9    13    1
    15    14    13    1
    16    14    15    1
    17    16    17   ar
    18    18    19   ar
    19    18    21    1
    20    20    15   ar
    21    10    12   am
    22    31    32   ar
    23    33    28   ar
    24    25     1    1
    25    13    10   am
    26    28    29   ar
    27    30    31   ar
    28    23    24    2
    29     1     2   ar
    30     3     4   ar
    31     5     6   ar
    32    15    16   ar
    33    17    18   ar
    34    19    20   ar
    35    10    11    2
    36    32    33   ar
    37    21    22    3
    38    25    26    1
@<TRIPOS>MOLECULE
MolPort-006-609-964 ChemDiv-V020-9513 MCULE-5221763621 PubChem-46070048 ZINC000034735459 ZINC34735459
 35 38 0 0 0
SMALL
GASTEIGER

@<TRIPOS>ATOM
      1 C          12.6901   40.7811    7.7989 C.ar    1  UNL1        0.0516
      2 C          11.8667   41.0259    8.9013 C.ar    1  UNL1        0.0296
      3 C          10.4707   40.8959    8.8084 C.ar    1  UNL1        0.0565
      4 C           9.9110   40.4968    7.5829 C.ar    1  UNL1        0.0150
      5 C          10.7253   40.2487    6.4760 C.ar    1  UNL1        0.0026
      6 C          12.1099   40.3909    6.5836 C.ar    1  UNL1        0.0148
      7 C          10.2392   41.3847   11.2579 C.3     1  UNL1        0.1015
      8 C           9.4563   42.4612   11.9901 C.3     1  UNL1        0.0435
      9 C           8.0315   41.9797   12.2495 C.3     1  UNL1        0.0971
     10 C           8.1870   41.0297    9.9029 C.2     1  UNL1        0.3112
     11 O           7.6104   40.5725    8.8777 O.2     1  UNL1       -0.2520
     12 N           9.6253   41.1208    9.9572 N.am    1  UNL1       -0.2430
     13 N           7.4040   41.4369   11.0414 N.am    1  UNL1       -0.2596
     14 C           5.9662   41.1943   11.0687 C.3     1  UNL1        0.1217
     15 C           5.2562   42.1644   10.1861 C.ar    1  UNL1       -0.0022
     16 C           5.9847   43.1521    9.5151 C.ar    1  UNL1       -0.0019
     17 C           5.3233   44.0747    8.6991 C.ar    1  UNL1        0.0100
     18 C           3.9328   44.0144    8.5559 C.ar    1  UNL1        0.0684
     19 C           3.2025   43.0292    9.2276 C.ar    1  UNL1        0.0100
     20 C           3.8641   42.1047   10.0427 C.ar    1  UNL1       -0.0019
     21 C           3.2576   44.9636    7.7173 C.1     1  UNL1        0.1004
     22 N           2.7142   45.7274    7.0373 N.1     1  UNL1       -0.1908
     23 C          14.8826   40.6511    9.1232 C.2     1  UNL1        0.2305
     24 O          14.3429   40.2135   10.1743 O.2     1  UNL1       -0.2744
     25 N          14.1079   40.9354    7.9506 N.am    1  UNL1       -0.2836
     26 H          14.6008   41.2717    7.1676 H       1  UNL1        0.1549
     27 C          16.3504   40.9102    9.1081 C.3     1  UNL1        0.1117
     28 C          16.0084   43.7327    6.5990 C.ar    1  UNL1        0.1384
     29 C          15.7372   42.5829    7.3476 C.ar    1  UNL1        0.0331
     30 C          16.6568   42.1231    8.2977 C.ar    1  UNL1       -0.0101
     31 C          17.8507   42.8212    8.5077 C.ar    1  UNL1       -0.0036
     32 C          18.1274   43.9723    7.7646 C.ar    1  UNL1        0.0028
     33 C          17.2097   44.4289    6.8142 C.ar    1  UNL1        0.0369
     34 C          13.7101   43.7562    5.6874 C.3     1  UNL1        0.2525
     35 O          15.0733   44.1606    5.6541 O.3     1  UNL1       -0.4714
@<TRIPOS>BOND
     1    34    35    1
     2    28    35    1
     3    29    30   ar
     4    27    30    1
     5    27    23    1
     6    23    25   am
     7     2     3   ar
     8     3    12    1
     9     4     5   ar
    10     6     1   ar
    11     7    12    1
    12     7     8    1
    13     8     9    1
    14     9    13    1
    15    14    13    1
    16    14    15    1
    17    16    17   ar
    18    18    19   ar
    19    18    21    1
    20    20    15   ar
    21    10    12   am
    22    31    32   ar
    23    33    28   ar
    24    25     1    1
    25    13    10   am
    26    28    29   ar
    27    30    31   ar
    28    23    24    2
    29     1     2   ar
    30     3     4   ar
    31     5     6   ar
    32    15    16   ar
    33    17    18   ar
    34    19    20   ar
    35    10    11    2
    36    32    33   ar
    37    21    22    3
    38    25    26    1
@<TRIPOS>MOLECULE
MolPort-006-609-964 ChemDiv-V020-9513 MCULE-5221763621 PubChem-46070048 ZINC000034735459 ZINC34735459
 35 38 0 0 0
SMALL
GASTEIGER

@<TRIPOS>ATOM
      1 C          10.4272   40.3054    9.5280 C.ar    1  UNL1        0.0516
      2 C          11.7207   40.4124   10.0461 C.ar    1  UNL1        0.0296
      3 C          12.6153   39.3300    9.9956 C.ar    1  UNL1        0.0565
      4 C          12.1908   38.1322    9.3962 C.ar    1  UNL1        0.0150
      5 C          10.9008   38.0157    8.8746 C.ar    1  UNL1        0.0026
      6 C          10.0220   39.0984    8.9409 C.ar    1  UNL1        0.0148
      7 C          14.2324   39.1130   11.9011 C.3     1  UNL1        0.1015
      8 C          15.5576   38.3776   12.0052 C.3     1  UNL1        0.0435
      9 C          16.6909   39.2822   11.5294 C.3     1  UNL1        0.0971
     10 C          15.0539   39.9683    9.7177 C.2     1  UNL1        0.3112
     11 O          14.8409   40.5017    8.5940 O.2     1  UNL1       -0.2520
     12 N          13.9608   39.4536   10.5052 N.am    1  UNL1       -0.2430
     13 N          16.3973   39.8990   10.2329 N.am    1  UNL1       -0.2596
     14 C          17.4887   40.5635    9.5298 C.3     1  UNL1        0.1217
     15 C          16.9707   41.7038    8.7203 C.ar    1  UNL1       -0.0022
     16 C          15.9509   41.4848    7.7882 C.ar    1  UNL1       -0.0019
     17 C          15.4721   42.5462    7.0145 C.ar    1  UNL1        0.0100
     18 C          16.0145   43.8268    7.1677 C.ar    1  UNL1        0.0684
     19 C          17.0355   44.0473    8.0973 C.ar    1  UNL1        0.0100
     20 C          17.5136   42.9860    8.8730 C.ar    1  UNL1       -0.0019
     21 C          15.5202   44.9137    6.3713 C.1     1  UNL1        0.1004
     22 N          15.1243   45.7900    5.7260 N.1     1  UNL1       -0.1908
     23 C           8.9611   42.1517    8.5182 C.2     1  UNL1        0.2305
     24 O           9.1705   41.8086    7.3240 O.2     1  UNL1       -0.2744
     25 N           9.5553   41.4410    9.6126 N.am    1  UNL1       -0.2836
     26 H           9.3425   41.7668   10.5170 H       1  UNL1        0.1549
     27 C           8.1059   43.3398    8.7983 C.3     1  UNL1        0.1117
     28 C           4.3169   43.4598    8.8942 C.ar    1  UNL1        0.1384
     29 C           5.6534   43.8457    8.7484 C.ar    1  UNL1        0.0331
     30 C           6.6847   42.9276    8.9784 C.ar    1  UNL1       -0.0101
     31 C           6.3793   41.6134    9.3477 C.ar    1  UNL1       -0.0036
     32 C           5.0459   41.2202    9.4933 C.ar    1  UNL1        0.0028
     33 C           4.0168   42.1386    9.2661 C.ar    1  UNL1        0.0369
     34 C           3.3486   45.3100    7.5702 C.3     1  UNL1        0.2525
     35 O           3.3120   44.4020    8.6643 O.3     1  UNL1       -0.4714
@<TRIPOS>BOND
     1    34    35    1
     2    28    35    1
     3    29    30   ar
     4    27    30    1
     5    27    23    1
     6    23    25   am
     7     2     3   ar
     8     3    12    1
     9     4     5   ar
    10     6     1   ar
    11     7    12    1
    12     7     8    1
    13     8     9    1
    14     9    13    1
    15    14    13    1
    16    14    15    1
    17    16    17   ar
    18    18    19   ar
    19    18    21    1
    20    20    15   ar
    21    10    12   am
    22    31    32   ar
    23    33    28   ar
    24    25     1    1
    25    13    10   am
    26    28    29   ar
    27    30    31   ar
    28    23    24    2
    29     1     2   ar
    30     3     4   ar
    31     5     6   ar
    32    15    16   ar
    33    17    18   ar
    34    19    20   ar
    35    10    11    2
    36    32    33   ar
    37    21    22    3
    38    25    26    1
@<TRIPOS>MOLECULE
MolPort-006-609-964 ChemDiv-V020-9513 MCULE-5221763621 PubChem-46070048 ZINC000034735459 ZINC34735459
 35 38 0 0 0
SMALL
GASTEIGER

@<TRIPOS>ATOM
      1 C           7.0105   42.0343    7.6013 C.ar    1  UNL1        0.0516
      2 C           8.0467   41.7002    8.4775 C.ar    1  UNL1        0.0296
      3 C           9.3549   41.4909    8.0094 C.ar    1  UNL1        0.0565
      4 C           9.6111   41.6398    6.6359 C.ar    1  UNL1        0.0150
      5 C           8.5829   41.9746    5.7525 C.ar    1  UNL1        0.0026
      6 C           7.2870   42.1706    6.2335 C.ar    1  UNL1        0.0148
      7 C          10.3906   41.7036   10.2842 C.3     1  UNL1        0.1015
      8 C          10.8737   40.6465   11.2625 C.3     1  UNL1        0.0435
      9 C          12.3238   40.2820   10.9571 C.3     1  UNL1        0.0971
     10 C          11.5887   40.4107    8.5330 C.2     1  UNL1        0.3112
     11 O          11.7983   40.1325    7.3201 O.2     1  UNL1       -0.2520
     12 N          10.4289   41.1748    8.9214 N.am    1  UNL1       -0.2430
     13 N          12.5312   39.9870    9.5367 N.am    1  UNL1       -0.2596
     14 C          13.7902   39.3634    9.1453 C.3     1  UNL1        0.1217
     15 C          14.8276   40.4019    8.8820 C.ar    1  UNL1       -0.0022
     16 C          14.5550   41.4423    7.9877 C.ar    1  UNL1       -0.0019
     17 C          15.5291   42.4099    7.7240 C.ar    1  UNL1        0.0100
     18 C          16.7782   42.3368    8.3500 C.ar    1  UNL1        0.0684
     19 C          17.0535   41.2963    9.2427 C.ar    1  UNL1        0.0100
     20 C          16.0785   40.3290    9.5082 C.ar    1  UNL1       -0.0019
     21 C          17.7755   43.3321    8.0764 C.1     1  UNL1        0.1004
     22 N          18.5822   44.1340    7.8590 N.1     1  UNL1       -0.1908
     23 C           5.0731   43.4831    8.4529 C.2     1  UNL1        0.2305
     24 O           5.6743   44.5758    8.2734 O.2     1  UNL1       -0.2744
     25 N           5.6937   42.2303    8.1348 N.am    1  UNL1       -0.2836
     26 H           5.1600   41.4196    8.2998 H       1  UNL1        0.1549
     27 C           3.7025   43.4903    9.0385 C.3     1  UNL1        0.1117
     28 C           2.6811   41.6938   12.2180 C.ar    1  UNL1        0.1384
     29 C           2.8186   42.6827   11.2385 C.ar    1  UNL1        0.0331
     30 C           3.5795   42.4397   10.0889 C.ar    1  UNL1       -0.0101
     31 C           4.1996   41.1983    9.9121 C.ar    1  UNL1       -0.0036
     32 C           4.0647   40.2046   10.8859 C.ar    1  UNL1        0.0028
     33 C           3.3069   40.4492   12.0349 C.ar    1  UNL1        0.0369
     34 C           0.6795   42.6620   13.2995 C.3     1  UNL1        0.2525
     35 O           1.9211   41.9707   13.3565 O.3     1  UNL1       -0.4714
@<TRIPOS>BOND
     1    34    35    1
     2    28    35    1
     3    29    30   ar
     4    27    30    1
     5    27    23    1
     6    23    25   am
     7     2     3   ar
     8     3    12    1
     9     4     5   ar
    10     6     1   ar
    11     7    12    1
    12     7     8    1
    13     8     9    1
    14     9    13    1
    15    14    13    1
    16    14    15    1
    17    16    17   ar
    18    18    19   ar
    19    18    21    1
    20    20    15   ar
    21    10    12   am
    22    31    32   ar
    23    33    28   ar
    24    25     1    1
    25    13    10   am
    26    28    29   ar
    27    30    31   ar
    28    23    24    2
    29     1     2   ar
    30     3     4   ar
    31     5     6   ar
    32    15    16   ar
    33    17    18   ar
    34    19    20   ar
    35    10    11    2
    36    32    33   ar
    37    21    22    3
    38    25    26    1
@<TRIPOS>MOLECULE
MolPort-006-609-964 ChemDiv-V020-9513 MCULE-5221763621 PubChem-46070048 ZINC000034735459 ZINC34735459
 35 38 0 0 0
SMALL
GASTEIGER

@<TRIPOS>ATOM
      1 C           9.9172   40.8186    9.1768 C.ar    1  UNL1        0.0516
      2 C          11.1756   40.8043    9.7846 C.ar    1  UNL1        0.0296
      3 C          11.9960   39.6648    9.7296 C.ar    1  UNL1        0.0565
      4 C          11.5341   38.5347    9.0340 C.ar    1  UNL1        0.0150
      5 C          10.2788   38.5395    8.4225 C.ar    1  UNL1        0.0026
      6 C           9.4730   39.6773    8.4942 C.ar    1  UNL1        0.0148
      7 C          13.4352   39.4223   11.7699 C.3     1  UNL1        0.1015
      8 C          14.6405   38.5379   12.0403 C.3     1  UNL1        0.0435
      9 C          15.9140   39.2438   11.5835 C.3     1  UNL1        0.0971
     10 C          14.5110   39.9609    9.5959 C.2     1  UNL1        0.3112
     11 O          14.4486   40.4104    8.4184 O.2     1  UNL1       -0.2520
     12 N          13.3077   39.6638   10.3333 N.am    1  UNL1       -0.2430
     13 N          15.7948   39.7701   10.2209 N.am    1  UNL1       -0.2596
     14 C          17.0106   40.2231    9.5549 C.3     1  UNL1        0.1217
     15 C          16.7324   41.4305    8.7250 C.ar    1  UNL1       -0.0022
     16 C          17.6356   42.4986    8.7312 C.ar    1  UNL1       -0.0019
     17 C          17.3726   43.6402    7.9682 C.ar    1  UNL1        0.0100
     18 C          16.2048   43.7179    7.2015 C.ar    1  UNL1        0.0684
     19 C          15.2996   42.6523    7.1956 C.ar    1  UNL1        0.0100
     20 C          15.5632   41.5091    7.9575 C.ar    1  UNL1       -0.0019
     21 C          15.9385   44.8918    6.4196 C.1     1  UNL1        0.1004
     22 N          15.7250   45.8369    5.7854 N.1     1  UNL1       -0.1908
     23 C           8.4513   42.6803    8.1956 C.2     1  UNL1        0.2305
     24 O           8.5133   42.2487    7.0134 O.2     1  UNL1       -0.2744
     25 N           9.1207   42.0076    9.2704 N.am    1  UNL1       -0.2836
     26 H           9.0234   42.4034   10.1666 H       1  UNL1        0.1549
     27 C           7.6949   43.9333    8.4777 C.3     1  UNL1        0.1117
     28 C           4.4772   42.1895    9.4703 C.ar    1  UNL1        0.1384
     29 C           5.8369   42.4622    9.2882 C.ar    1  UNL1        0.0331
     30 C           6.2436   43.6385    8.6475 C.ar    1  UNL1       -0.0101
     31 C           5.2868   44.5524    8.1936 C.ar    1  UNL1       -0.0036
     32 C           3.9262   44.2874    8.3740 C.ar    1  UNL1        0.0028
     33 C           3.5210   43.1111    9.0115 C.ar    1  UNL1        0.0369
     34 C           4.6042   40.6306   11.3853 C.3     1  UNL1        0.2525
     35 O           4.1047   41.0037   10.1070 O.3     1  UNL1       -0.4714
@<TRIPOS>BOND
     1    34    35    1
     2    28    35    1
     3    29    30   ar
     4    27    30    1
     5    27    23    1
     6    23    25   am
     7     2     3   ar
     8     3    12    1
     9     4     5   ar
    10     6     1   ar
    11     7    12    1
    12     7     8    1
    13     8     9    1
    14     9    13    1
    15    14    13    1
    16    14    15    1
    17    16    17   ar
    18    18    19   ar
    19    18    21    1
    20    20    15   ar
    21    10    12   am
    22    31    32   ar
    23    33    28   ar
    24    25     1    1
    25    13    10   am
    26    28    29   ar
    27    30    31   ar
    28    23    24    2
    29     1     2   ar
    30     3     4   ar
    31     5     6   ar
    32    15    16   ar
    33    17    18   ar
    34    19    20   ar
    35    10    11    2
    36    32    33   ar
    37    21    22    3
    38    25    26    1
@<TRIPOS>MOLECULE
MolPort-006-609-964 ChemDiv-V020-9513 MCULE-5221763621 PubChem-46070048 ZINC000034735459 ZINC34735459
 35 38 0 0 0
SMALL
GASTEIGER

@<TRIPOS>ATOM
      1 C          14.7041   40.2049    9.8958 C.ar    1  UNL1        0.0516
      2 C          13.4113   40.6862    9.6724 C.ar    1  UNL1        0.0296
      3 C          12.3261   40.2392   10.4450 C.ar    1  UNL1        0.0565
      4 C          12.5655   39.3040   11.4661 C.ar    1  UNL1        0.0150
      5 C          13.8539   38.8181   11.6980 C.ar    1  UNL1        0.0026
      6 C          14.9193   39.2666   10.9152 C.ar    1  UNL1        0.0148
      7 C          10.0294   40.7290   11.3271 C.3     1  UNL1        0.1015
      8 C           9.2188   42.0138   11.3384 C.3     1  UNL1        0.0435
      9 C           8.4287   42.1393   10.0388 C.3     1  UNL1        0.0971
     10 C          10.5442   41.2554    8.9540 C.2     1  UNL1        0.3112
     11 O          11.2428   41.0893    7.9164 O.2     1  UNL1       -0.2520
     12 N          10.9967   40.7606   10.2309 N.am    1  UNL1       -0.2430
     13 N           9.2691   41.9190    8.8586 N.am    1  UNL1       -0.2596
     14 C           8.7214   42.2733    7.5542 C.3     1  UNL1        0.1217
     15 C           8.9236   41.1598    6.5830 C.ar    1  UNL1       -0.0022
     16 C           8.2524   39.9468    6.7701 C.ar    1  UNL1       -0.0019
     17 C           8.4502   38.8934    5.8726 C.ar    1  UNL1        0.0100
     18 C           9.3222   39.0489    4.7894 C.ar    1  UNL1        0.0684
     19 C           9.9957   40.2598    4.6019 C.ar    1  UNL1        0.0100
     20 C           9.7967   41.3147    5.4987 C.ar    1  UNL1       -0.0019
     21 C           9.5225   37.9648    3.8703 C.1     1  UNL1        0.1004
     22 N           9.6855   37.0879    3.1317 N.1     1  UNL1       -0.1908
     23 C          17.1621   40.7601    9.4185 C.2     1  UNL1        0.2305
     24 O          17.5768   40.3687   10.5421 O.2     1  UNL1       -0.2744
     25 N          15.7723   40.6924    9.0723 N.am    1  UNL1       -0.2836
     26 H          15.5255   41.0143    8.1753 H       1  UNL1        0.1549
     27 C          18.1299   41.3358    8.4420 C.3     1  UNL1        0.1117
     28 C          15.5056   43.6084    6.9161 C.ar    1  UNL1        0.1384
     29 C          16.1045   42.5533    7.6122 C.ar    1  UNL1        0.0331
     30 C          17.4989   42.4500    7.6788 C.ar    1  UNL1       -0.0101
     31 C          18.3003   43.4113    7.0539 C.ar    1  UNL1       -0.0036
     32 C          17.7087   44.4695    6.3583 C.ar    1  UNL1        0.0028
     33 C          16.3161   44.5702    6.2900 C.ar    1  UNL1        0.0369
     34 C          13.3270   42.7637    6.1075 C.3     1  UNL1        0.2525
     35 O          14.1118   43.6784    6.8626 O.3     1  UNL1       -0.4714
@<TRIPOS>BOND
     1    34    35    1
     2    28    35    1
     3    29    30   ar
     4    27    30    1
     5    27    23    1
     6    23    25   am
     7     2     3   ar
     8     3    12    1
     9     4     5   ar
    10     6     1   ar
    11     7    12    1
    12     7     8    1
    13     8     9    1
    14     9    13    1
    15    14    13    1
    16    14    15    1
    17    16    17   ar
    18    18    19   ar
    19    18    21    1
    20    20    15   ar
    21    10    12   am
    22    31    32   ar
    23    33    28   ar
    24    25     1    1
    25    13    10   am
    26    28    29   ar
    27    30    31   ar
    28    23    24    2
    29     1     2   ar
    30     3     4   ar
    31     5     6   ar
    32    15    16   ar
    33    17    18   ar
    34    19    20   ar
    35    10    11    2
    36    32    33   ar
    37    21    22    3
    38    25    26    1
@<TRIPOS>MOLECULE
MolPort-006-609-964 ChemDiv-V020-9513 MCULE-5221763621 PubChem-46070048 ZINC000034735459 ZINC34735459
 35 38 0 0 0
SMALL
GASTEIGER

@<TRIPOS>ATOM
      1 C          11.0241   38.4322    9.4722 C.ar    1  UNL1        0.0516
      2 C          12.4057   38.6415    9.4905 C.ar    1  UNL1        0.0296
      3 C          13.2826   37.6605    9.9836 C.ar    1  UNL1        0.0565
      4 C          12.7452   36.4479   10.4474 C.ar    1  UNL1        0.0150
      5 C          11.3663   36.2287   10.4321 C.ar    1  UNL1        0.0026
      6 C          10.5087   37.2177    9.9468 C.ar    1  UNL1        0.0148
      7 C          15.6042   36.7103    9.9871 C.3     1  UNL1        0.1015
      8 C          16.7834   36.9558    9.0612 C.3     1  UNL1        0.0435
      9 C          17.5879   38.1554    9.5538 C.3     1  UNL1        0.0971
     10 C          15.3142   39.1777   10.0211 C.2     1  UNL1        0.3112
     11 O          14.6120   40.2003   10.2526 O.2     1  UNL1       -0.2520
     12 N          14.7115   37.8684    9.9736 N.am    1  UNL1       -0.2430
     13 N          16.7357   39.3148    9.8318 N.am    1  UNL1       -0.2596
     14 C          17.3840   40.6038   10.0439 C.3     1  UNL1        0.1217
     15 C          16.9271   41.5921    9.0248 C.ar    1  UNL1       -0.0022
     16 C          15.6912   41.4156    8.3939 C.ar    1  UNL1       -0.0019
     17 C          15.2643   42.3294    7.4259 C.ar    1  UNL1        0.0100
     18 C          16.0735   43.4183    7.0837 C.ar    1  UNL1        0.0684
     19 C          17.3102   43.5954    7.7116 C.ar    1  UNL1        0.0100
     20 C          17.7370   42.6822    8.6816 C.ar    1  UNL1       -0.0019
     21 C          15.6315   44.3541    6.0892 C.1     1  UNL1        0.1004
     22 N          15.2714   45.1070    5.2863 N.1     1  UNL1       -0.1908
     23 C          10.0122   40.7886    9.5049 C.2     1  UNL1        0.2305
     24 O          10.6417   41.1574   10.5323 O.2     1  UNL1       -0.2744
     25 N          10.1768   39.4713    8.9631 N.am    1  UNL1       -0.2836
     26 H           9.6533   39.2578    8.1571 H       1  UNL1        0.1549
     27 C           9.0524   41.7284    8.8590 C.3     1  UNL1        0.1117
     28 C           7.9572   39.6264    5.8989 C.ar    1  UNL1        0.1384
     29 C           8.7615   40.3283    6.8027 C.ar    1  UNL1        0.0331
     30 C           8.1868   41.0019    7.8869 C.ar    1  UNL1       -0.0101
     31 C           6.8010   40.9670    8.0748 C.ar    1  UNL1       -0.0036
     32 C           5.9913   40.2658    7.1767 C.ar    1  UNL1        0.0028
     33 C           6.5660   39.5958    6.0928 C.ar    1  UNL1        0.0369
     34 C           9.6713   39.5152    4.1203 C.3     1  UNL1        0.2525
     35 O           8.5613   38.9711    4.8237 O.3     1  UNL1       -0.4714
@<TRIPOS>BOND
     1    34    35    1
     2    28    35    1
     3    29    30   ar
     4    27    30    1
     5    27    23    1
     6    23    25   am
     7     2     3   ar
     8     3    12    1
     9     4     5   ar
    10     6     1   ar
    11     7    12    1
    12     7     8    1
    13     8     9    1
    14     9    13    1
    15    14    13    1
    16    14    15    1
    17    16    17   ar
    18    18    19   ar
    19    18    21    1
    20    20    15   ar
    21    10    12   am
    22    31    32   ar
    23    33    28   ar
    24    25     1    1
    25    13    10   am
    26    28    29   ar
    27    30    31   ar
    28    23    24    2
    29     1     2   ar
    30     3     4   ar
    31     5     6   ar
    32    15    16   ar
    33    17    18   ar
    34    19    20   ar
    35    10    11    2
    36    32    33   ar
    37    21    22    3
    38    25    26    1
@<TRIPOS>MOLECULE
MolPort-006-609-964 ChemDiv-V020-9513 MCULE-5221763621 PubChem-46070048 ZINC000034735459 ZINC34735459
 35 38 0 0 0
SMALL
GASTEIGER

@<TRIPOS>ATOM
      1 C           4.4849   42.1176   10.9890 C.ar    1  UNL1        0.0516
      2 C           5.8415   41.7893   11.0602 C.ar    1  UNL1        0.0296
      3 C           6.7142   42.0725    9.9959 C.ar    1  UNL1        0.0565
      4 C           6.2005   42.7112    8.8547 C.ar    1  UNL1        0.0150
      5 C           4.8468   43.0444    8.7745 C.ar    1  UNL1        0.0026
      6 C           3.9920   42.7480    9.8378 C.ar    1  UNL1        0.0148
      7 C           8.9165   42.3346   11.1682 C.3     1  UNL1        0.1015
      8 C           9.8924   41.2988   11.6998 C.3     1  UNL1        0.0435
      9 C          10.8609   40.8848   10.5954 C.3     1  UNL1        0.0971
     10 C           8.8078   40.9505    9.1076 C.2     1  UNL1        0.3112
     11 O           8.2396   40.6255    8.0288 O.2     1  UNL1       -0.2520
     12 N           8.1209   41.7587   10.0849 N.am    1  UNL1       -0.2430
     13 N          10.1653   40.5359    9.3536 N.am    1  UNL1       -0.2596
     14 C          10.9294   39.8653    8.3079 C.3     1  UNL1        0.1217
     15 C          12.0645   40.7223    7.8595 C.ar    1  UNL1       -0.0022
     16 C          13.3312   40.5466    8.4262 C.ar    1  UNL1       -0.0019
     17 C          14.3958   41.3577    8.0222 C.ar    1  UNL1        0.0100
     18 C          14.1952   42.3482    7.0546 C.ar    1  UNL1        0.0684
     19 C          12.9293   42.5269    6.4884 C.ar    1  UNL1        0.0100
     20 C          11.8642   41.7144    6.8912 C.ar    1  UNL1       -0.0019
     21 C          15.2909   43.1789    6.6425 C.1     1  UNL1        0.1004
     22 N          16.1724   43.8524    6.3103 N.1     1  UNL1       -0.1908
     23 C           2.2169   41.9592   12.1760 C.2     1  UNL1        0.2305
     24 O           1.5591   42.4174   11.2040 O.2     1  UNL1       -0.2744
     25 N           3.6400   41.7993   12.1033 N.am    1  UNL1       -0.2836
     26 H           4.0836   41.4325   12.9020 H       1  UNL1        0.1549
     27 C           1.5069   41.6076   13.4386 C.3     1  UNL1        0.1117
     28 C          -0.2051   44.8688   14.3401 C.ar    1  UNL1        0.1384
     29 C           0.7887   43.9188   14.0835 C.ar    1  UNL1        0.0331
     30 C           0.4423   42.6084   13.7333 C.ar    1  UNL1       -0.0101
     31 C          -0.9051   42.2469   13.6301 C.ar    1  UNL1       -0.0036
     32 C          -1.9037   43.1917   13.8832 C.ar    1  UNL1        0.0028
     33 C          -1.5566   44.4992   14.2355 C.ar    1  UNL1        0.0369
     34 C          -0.1526   46.7429   15.9522 C.3     1  UNL1        0.2525
     35 O           0.1741   46.1655   14.6941 O.3     1  UNL1       -0.4714
@<TRIPOS>BOND
     1    34    35    1
     2    28    35    1
     3    29    30   ar
     4    27    30    1
     5    27    23    1
     6    23    25   am
     7     2     3   ar
     8     3    12    1
     9     4     5   ar
    10     6     1   ar
    11     7    12    1
    12     7     8    1
    13     8     9    1
    14     9    13    1
    15    14    13    1
    16    14    15    1
    17    16    17   ar
    18    18    19   ar
    19    18    21    1
    20    20    15   ar
    21    10    12   am
    22    31    32   ar
    23    33    28   ar
    24    25     1    1
    25    13    10   am
    26    28    29   ar
    27    30    31   ar
    28    23    24    2
    29     1     2   ar
    30     3     4   ar
    31     5     6   ar
    32    15    16   ar
    33    17    18   ar
    34    19    20   ar
    35    10    11    2
    36    32    33   ar
    37    21    22    3
    38    25    26    1
@<TRIPOS>MOLECULE
MolPort-006-609-964 ChemDiv-V020-9513 MCULE-5221763621 PubChem-46070048 ZINC000034735459 ZINC34735459
 35 38 0 0 0
SMALL
GASTEIGER

@<TRIPOS>ATOM
      1 C          14.7993   40.2378    9.7323 C.ar    1  UNL1        0.0516
      2 C          13.4643   40.6490    9.6915 C.ar    1  UNL1        0.0296
      3 C          12.4765   39.9851   10.4384 C.ar    1  UNL1        0.0565
      4 C          12.8578   38.9012   11.2471 C.ar    1  UNL1        0.0150
      5 C          14.1893   38.4835   11.2957 C.ar    1  UNL1        0.0026
      6 C          15.1565   39.1492   10.5404 C.ar    1  UNL1        0.0148
      7 C          10.5032   40.9629   11.6397 C.3     1  UNL1        0.1015
      8 C           9.6257   42.1577   11.3075 C.3     1  UNL1        0.0435
      9 C           8.4839   41.7235   10.3928 C.3     1  UNL1        0.0971
     10 C          10.2587   40.3145    9.2536 C.2     1  UNL1        0.3112
     11 O          10.6364   39.6504    8.2492 O.2     1  UNL1       -0.2520
     12 N          11.1033   40.4311   10.4168 N.am    1  UNL1       -0.2430
     13 N           8.9598   40.9375    9.2511 N.am    1  UNL1       -0.2596
     14 C           8.0282   40.6894    8.1568 C.3     1  UNL1        0.1217
     15 C           6.9431   41.7124    8.1527 C.ar    1  UNL1       -0.0022
     16 C           5.7741   41.4853    8.8866 C.ar    1  UNL1       -0.0019
     17 C           4.7463   42.4329    8.8739 C.ar    1  UNL1        0.0100
     18 C           4.8832   43.6064    8.1244 C.ar    1  UNL1        0.0684
     19 C           6.0500   43.8343    7.3884 C.ar    1  UNL1        0.0100
     20 C           7.0794   42.8873    7.4023 C.ar    1  UNL1       -0.0019
     21 C           3.8255   44.5767    8.1140 C.1     1  UNL1        0.1004
     22 N           2.9702   45.3573    8.1027 N.1     1  UNL1       -0.1908
     23 C          17.1830   40.9796    9.1443 C.2     1  UNL1        0.2305
     24 O          17.7253   40.3403   10.0849 O.2     1  UNL1       -0.2744
     25 N          15.7635   40.9494    8.9442 N.am    1  UNL1       -0.2836
     26 H          15.4140   41.4718    8.1865 H       1  UNL1        0.1549
     27 C          18.0293   41.8105    8.2416 C.3     1  UNL1        0.1117
     28 C          14.9815   43.5200    6.7693 C.ar    1  UNL1        0.1384
     29 C          15.7846   42.6489    7.5124 C.ar    1  UNL1        0.0331
     30 C          17.1798   42.7268    7.4288 C.ar    1  UNL1       -0.0101
     31 C          17.7767   43.6866    6.6046 C.ar    1  UNL1       -0.0036
     32 C          16.9803   44.5619    5.8606 C.ar    1  UNL1        0.0028
     33 C          15.5871   44.4814    5.9427 C.ar    1  UNL1        0.0369
     34 C          12.8769   42.2766    6.3977 C.3     1  UNL1        0.2525
     35 O          13.5928   43.4112    6.8698 O.3     1  UNL1       -0.4714
@<TRIPOS>BOND
     1    34    35    1
     2    28    35    1
     3    29    30   ar
     4    27    30    1
     5    27    23    1
     6    23    25   am
     7     2     3   ar
     8     3    12    1
     9     4     5   ar
    10     6     1   ar
    11     7    12    1
    12     7     8    1
    13     8     9    1
    14     9    13    1
    15    14    13    1
    16    14    15    1
    17    16    17   ar
    18    18    19   ar
    19    18    21    1
    20    20    15   ar
    21    10    12   am
    22    31    32   ar
    23    33    28   ar
    24    25     1    1
    25    13    10   am
    26    28    29   ar
    27    30    31   ar
    28    23    24    2
    29     1     2   ar
    30     3     4   ar
    31     5     6   ar
    32    15    16   ar
    33    17    18   ar
    34    19    20   ar
    35    10    11    2
    36    32    33   ar
    37    21    22    3
    38    25    26    1
