@<TRIPOS>MOLECULE
MolPort-002-760-240 20615767 CSSS00132999005 MCULE-3714084329 PubChem-19340451 ZINC000020615767 ZINC20615767
 31 34 0 0 0
SMALL
GASTEIGER

@<TRIPOS>ATOM
      1 C           8.7824   41.5944    9.5630 C.ar    1  UNL1        0.0538
      2 C           8.9555   41.9735    8.2091 C.ar    1  UNL1        0.0060
      3 C          10.2016   41.8378    7.5723 C.ar    1  UNL1        0.0173
      4 C          11.2569   41.3171    8.3206 C.ar    1  UNL1        0.0596
      5 C          13.1727   40.5701    8.9860 C.ar    1  UNL1        0.0338
      6 C          14.6081   40.1616    8.9813 C.3     1  UNL1        0.0497
      7 C          12.3104   40.4664   10.0726 C.ar    1  UNL1       -0.0088
      8 C          12.6278   39.9365   11.4291 C.3     1  UNL1        0.0322
      9 C          11.0944   40.9456    9.6320 C.ar    1  UNL1        0.0131
     10 C           9.8722   41.0692   10.2881 C.ar    1  UNL1        0.0057
     11 N          12.5239   41.0963    7.9185 N.ar    1  UNL1       -0.3268
     12 C           7.4687   41.7470   10.2125 C.2     1  UNL1        0.2496
     13 O           7.3850   41.7249   11.4708 O.2     1  UNL1       -0.2698
     14 N           6.2923   41.9157    9.4094 N.am    1  UNL1       -0.2779
     15 H           6.4088   41.9111    8.4319 H       1  UNL1        0.1553
     16 C           4.5729   41.8485   11.2085 C.ar    1  UNL1        0.1141
     17 C           4.9629   42.0902    9.9110 C.ar    1  UNL1        0.0908
     18 C           3.8525   42.5231    9.2091 C.ar    1  UNL1        0.1364
     19 N           3.2592   42.1339   11.2536 N.ar    1  UNL1       -0.2187
     20 N           2.8187   42.5389   10.0731 N.ar    1  UNL1       -0.1641
     21 C           2.4190   42.0450   12.4354 C.3     1  UNL1        0.2733
     22 O           1.1757   42.6241   12.1782 O.3     1  UNL1       -0.3311
     23 C          -0.7859   42.2435   13.4638 C.3     1  UNL1        0.0347
     24 C           0.6142   42.8200   13.4388 C.3     1  UNL1        0.1446
     25 C          13.0722   41.3222    6.5851 C.3     1  UNL1        0.1324
     26 C          14.0178   42.4752    6.6022 C.ar    1  UNL1        0.0004
     27 C          15.2281   42.3810    7.2985 C.ar    1  UNL1       -0.0024
     28 C          16.1241   43.4543    7.2937 C.ar    1  UNL1       -0.0003
     29 C          15.8130   44.6213    6.5890 C.ar    1  UNL1       -0.0000
     30 C          14.6067   44.7145    5.8877 C.ar    1  UNL1       -0.0003
     31 C          13.7106   43.6412    5.8925 C.ar    1  UNL1       -0.0024
@<TRIPOS>BOND
     1    23    24    1
     2    24    22    1
     3    21    22    1
     4    21    19    1
     5    17    14    1
     6    17    18   ar
     7    12     1    1
     8     2     3   ar
     9     4    11   ar
    10    25    11    1
    11    25    26    1
    12    27    28   ar
    13    29    30   ar
    14    31    26   ar
    15     6     5    1
    16     7     9   ar
    17     8     7    1
    18     9     4   ar
    19    10     1   ar
    20    19    16   ar
    21    19    20   ar
    22    14    12   am
    23    11     5   ar
    24    16    17   ar
    25    12    13    2
    26     1     2   ar
    27     3     4   ar
    28    26    27   ar
    29    28    29   ar
    30    30    31   ar
    31     5     7   ar
    32     9    10   ar
    33    18    20   ar
    34    14    15    1
@<TRIPOS>MOLECULE
MolPort-002-760-240 20615767 CSSS00132999005 MCULE-3714084329 PubChem-19340451 ZINC000020615767 ZINC20615767
 31 34 0 0 0
SMALL
GASTEIGER

@<TRIPOS>ATOM
      1 C          10.7096   41.2967    9.2984 C.ar    1  UNL1        0.0538
      2 C           9.8286   40.2171    9.0434 C.ar    1  UNL1        0.0060
      3 C           8.4612   40.4388    8.8036 C.ar    1  UNL1        0.0173
      4 C           8.0062   41.7568    8.8251 C.ar    1  UNL1        0.0596
      5 C           6.8045   43.5505    8.7256 C.ar    1  UNL1        0.0338
      6 C           5.6302   44.4559    8.5566 C.3     1  UNL1        0.0497
      7 C           8.1028   43.9613    9.0096 C.ar    1  UNL1       -0.0088
      8 C           8.5860   45.3586    9.1988 C.3     1  UNL1        0.0322
      9 C           8.8557   42.8072    9.0690 C.ar    1  UNL1        0.0131
     10 C          10.2141   42.6172    9.3102 C.ar    1  UNL1        0.0057
     11 N           6.7505   42.2002    8.6193 N.ar    1  UNL1       -0.3268
     12 C          12.1389   41.0426    9.5498 C.2     1  UNL1        0.2496
     13 O          12.4935   40.4398   10.5995 O.2     1  UNL1       -0.2698
     14 N          13.1189   41.4859    8.6010 N.am    1  UNL1       -0.2779
     15 H          12.7922   41.9647    7.8052 H       1  UNL1        0.1553
     16 C          15.4880   42.1074    8.1551 C.ar    1  UNL1        0.1141
     17 C          14.5325   41.2902    8.7147 C.ar    1  UNL1        0.0908
     18 C          15.1863   40.2750    9.3892 C.ar    1  UNL1        0.1364
     19 N          16.6728   41.5710    8.4981 N.ar    1  UNL1       -0.2187
     20 N          16.5084   40.4833    9.2340 N.ar    1  UNL1       -0.1641
     21 C          17.9746   42.1103    8.1443 C.3     1  UNL1        0.2733
     22 O          17.8882   43.4943    7.9879 O.3     1  UNL1       -0.3311
     23 C          16.7684   44.5151    6.1577 C.3     1  UNL1        0.0347
     24 C          17.9584   43.6952    6.6105 C.3     1  UNL1        0.1446
     25 C           5.5797   41.3943    8.2890 C.3     1  UNL1        0.1324
     26 C           4.6529   41.3247    9.4552 C.ar    1  UNL1        0.0004
     27 C           5.1110   40.8499   10.6894 C.ar    1  UNL1       -0.0024
     28 C           4.2470   40.8077   11.7879 C.ar    1  UNL1       -0.0003
     29 C           2.9252   41.2442   11.6547 C.ar    1  UNL1       -0.0000
     30 C           2.4678   41.7247   10.4236 C.ar    1  UNL1       -0.0003
     31 C           3.3318   41.7669    9.3251 C.ar    1  UNL1       -0.0024
@<TRIPOS>BOND
     1    23    24    1
     2    24    22    1
     3    21    22    1
     4    21    19    1
     5    17    14    1
     6    17    18   ar
     7    12     1    1
     8     2     3   ar
     9     4    11   ar
    10    25    11    1
    11    25    26    1
    12    27    28   ar
    13    29    30   ar
    14    31    26   ar
    15     6     5    1
    16     7     9   ar
    17     8     7    1
    18     9     4   ar
    19    10     1   ar
    20    19    16   ar
    21    19    20   ar
    22    14    12   am
    23    11     5   ar
    24    16    17   ar
    25    12    13    2
    26     1     2   ar
    27     3     4   ar
    28    26    27   ar
    29    28    29   ar
    30    30    31   ar
    31     5     7   ar
    32     9    10   ar
    33    18    20   ar
    34    14    15    1
@<TRIPOS>MOLECULE
MolPort-002-760-240 20615767 CSSS00132999005 MCULE-3714084329 PubChem-19340451 ZINC000020615767 ZINC20615767
 31 34 0 0 0
SMALL
GASTEIGER

@<TRIPOS>ATOM
      1 C          11.0034   39.8123    9.1977 C.ar    1  UNL1        0.0538
      2 C          12.1443   40.1215    8.4171 C.ar    1  UNL1        0.0060
      3 C          13.1874   39.1923    8.2586 C.ar    1  UNL1        0.0173
      4 C          13.0569   37.9587    8.8957 C.ar    1  UNL1        0.0596
      5 C          13.3549   35.9466    9.6262 C.ar    1  UNL1        0.0338
      6 C          13.9706   34.6087    9.8679 C.3     1  UNL1        0.0497
      7 C          12.1276   36.3694   10.1260 C.ar    1  UNL1       -0.0088
      8 C          11.1885   35.5951   10.9863 C.3     1  UNL1        0.0322
      9 C          11.9524   37.6524    9.6511 C.ar    1  UNL1        0.0131
     10 C          10.9047   38.5533    9.8257 C.ar    1  UNL1        0.0057
     11 N          13.9213   36.9251    8.8786 N.ar    1  UNL1       -0.3268
     12 C           9.9223   40.8012    9.3531 C.2     1  UNL1        0.2496
     13 O          10.1977   41.9816    9.7019 O.2     1  UNL1       -0.2698
     14 N           8.5627   40.4143    9.1105 N.am    1  UNL1       -0.2779
     15 H           8.3987   39.4778    8.8550 H       1  UNL1        0.1553
     16 C           7.1202   42.2837    8.3217 C.ar    1  UNL1        0.1141
     17 C           7.4241   41.2765    9.2090 C.ar    1  UNL1        0.0908
     18 C           6.4426   41.2605   10.1834 C.ar    1  UNL1        0.1364
     19 N           5.9845   42.8414    8.7783 N.ar    1  UNL1       -0.2187
     20 N           5.5691   42.2412    9.8823 N.ar    1  UNL1       -0.1641
     21 C           5.2731   43.9392    8.1465 C.3     1  UNL1        0.2733
     22 O           5.7962   45.1572    8.5827 O.3     1  UNL1       -0.3311
     23 C           7.9753   45.4717    9.4762 C.3     1  UNL1        0.0347
     24 C           7.1515   45.0893    8.2644 C.3     1  UNL1        0.1446
     25 C          15.1850   36.8516    8.1526 C.3     1  UNL1        0.1324
     26 C          16.3318   37.0291    9.0893 C.ar    1  UNL1        0.0004
     27 C          16.3080   38.0530   10.0430 C.ar    1  UNL1       -0.0024
     28 C          17.3733   38.2031   10.9359 C.ar    1  UNL1       -0.0003
     29 C          18.4617   37.3270   10.8791 C.ar    1  UNL1       -0.0000
     30 C          18.4840   36.2996    9.9307 C.ar    1  UNL1       -0.0003
     31 C          17.4186   36.1494    9.0377 C.ar    1  UNL1       -0.0024
@<TRIPOS>BOND
     1    23    24    1
     2    24    22    1
     3    21    22    1
     4    21    19    1
     5    17    14    1
     6    17    18   ar
     7    12     1    1
     8     2     3   ar
     9     4    11   ar
    10    25    11    1
    11    25    26    1
    12    27    28   ar
    13    29    30   ar
    14    31    26   ar
    15     6     5    1
    16     7     9   ar
    17     8     7    1
    18     9     4   ar
    19    10     1   ar
    20    19    16   ar
    21    19    20   ar
    22    14    12   am
    23    11     5   ar
    24    16    17   ar
    25    12    13    2
    26     1     2   ar
    27     3     4   ar
    28    26    27   ar
    29    28    29   ar
    30    30    31   ar
    31     5     7   ar
    32     9    10   ar
    33    18    20   ar
    34    14    15    1
@<TRIPOS>MOLECULE
MolPort-002-760-240 20615767 CSSS00132999005 MCULE-3714084329 PubChem-19340451 ZINC000020615767 ZINC20615767
 31 34 0 0 0
SMALL
GASTEIGER

@<TRIPOS>ATOM
      1 C          11.2934   39.9060    9.1323 C.ar    1  UNL1        0.0538
      2 C          12.5412   40.3184    8.6034 C.ar    1  UNL1        0.0060
      3 C          13.6509   39.4552    8.6077 C.ar    1  UNL1        0.0173
      4 C          13.4777   38.1819    9.1493 C.ar    1  UNL1        0.0596
      5 C          13.7547   36.1493    9.8297 C.ar    1  UNL1        0.0338
      6 C          14.3946   34.8336   10.1240 C.3     1  UNL1        0.0497
      7 C          12.4307   36.4785   10.1006 C.ar    1  UNL1       -0.0088
      8 C          11.3942   35.6082   10.7253 C.3     1  UNL1        0.0322
      9 C          12.2703   37.7758    9.6608 C.ar    1  UNL1        0.0131
     10 C          11.1548   38.6096    9.6701 C.ar    1  UNL1        0.0057
     11 N          14.3919   37.1974    9.2526 N.ar    1  UNL1       -0.3268
     12 C          10.1434   40.8269    9.1205 C.2     1  UNL1        0.2496
     13 O          10.2056   41.9161    9.7536 O.2     1  UNL1       -0.2698
     14 N           8.9582   40.4772    8.3922 N.am    1  UNL1       -0.2779
     15 H           8.9540   39.6096    7.9269 H       1  UNL1        0.1553
     16 C           6.8568   41.4658    9.2890 C.ar    1  UNL1        0.1141
     17 C           7.7810   41.2847    8.2854 C.ar    1  UNL1        0.0908
     18 C           7.3625   42.0152    7.1880 C.ar    1  UNL1        0.1364
     19 N           5.9194   42.2840    8.7782 N.ar    1  UNL1       -0.2187
     20 N           6.2089   42.6208    7.5314 N.ar    1  UNL1       -0.1641
     21 C           4.7498   42.7710    9.4891 C.3     1  UNL1        0.2733
     22 O           3.8202   43.2796    8.5810 O.3     1  UNL1       -0.3311
     23 C           3.2586   45.2745    7.4190 C.3     1  UNL1        0.0347
     24 C           4.1792   44.6174    8.4260 C.3     1  UNL1        0.1446
     25 C          15.7732   37.2314    8.7832 C.3     1  UNL1        0.1324
     26 C          16.0619   36.0389    7.9356 C.ar    1  UNL1        0.0004
     27 C          16.9999   35.0889    8.3555 C.ar    1  UNL1       -0.0024
     28 C          17.2520   33.9595    7.5709 C.ar    1  UNL1       -0.0003
     29 C          16.5633   33.7763    6.3677 C.ar    1  UNL1       -0.0000
     30 C          15.6213   34.7217    5.9499 C.ar    1  UNL1       -0.0003
     31 C          15.3692   35.8512    6.7345 C.ar    1  UNL1       -0.0024
@<TRIPOS>BOND
     1    23    24    1
     2    24    22    1
     3    21    22    1
     4    21    19    1
     5    17    14    1
     6    17    18   ar
     7    12     1    1
     8     2     3   ar
     9     4    11   ar
    10    25    11    1
    11    25    26    1
    12    27    28   ar
    13    29    30   ar
    14    31    26   ar
    15     6     5    1
    16     7     9   ar
    17     8     7    1
    18     9     4   ar
    19    10     1   ar
    20    19    16   ar
    21    19    20   ar
    22    14    12   am
    23    11     5   ar
    24    16    17   ar
    25    12    13    2
    26     1     2   ar
    27     3     4   ar
    28    26    27   ar
    29    28    29   ar
    30    30    31   ar
    31     5     7   ar
    32     9    10   ar
    33    18    20   ar
    34    14    15    1
@<TRIPOS>MOLECULE
MolPort-002-760-240 20615767 CSSS00132999005 MCULE-3714084329 PubChem-19340451 ZINC000020615767 ZINC20615767
 31 34 0 0 0
SMALL
GASTEIGER

@<TRIPOS>ATOM
      1 C          13.2079   39.9883   10.3823 C.ar    1  UNL1        0.0538
      2 C          13.0413   40.3690    9.0280 C.ar    1  UNL1        0.0060
      3 C          11.8638   41.0023    8.5930 C.ar    1  UNL1        0.0173
      4 C          10.8699   41.2416    9.5414 C.ar    1  UNL1        0.0596
      5 C           9.0670   41.8530   10.5645 C.ar    1  UNL1        0.0338
      6 C           7.7161   42.4336   10.8200 C.3     1  UNL1        0.0497
      7 C           9.8825   41.2607   11.5232 C.ar    1  UNL1       -0.0088
      8 C           9.5889   41.0859   12.9741 C.3     1  UNL1        0.0322
      9 C          11.0269   40.8774   10.8556 C.ar    1  UNL1        0.0131
     10 C          12.1817   40.2486   11.3143 C.ar    1  UNL1        0.0057
     11 N           9.6742   41.8336    9.3528 N.ar    1  UNL1       -0.3268
     12 C          14.4486   39.3235   10.8173 C.2     1  UNL1        0.2496
     13 O          14.5333   38.8563   11.9859 O.2     1  UNL1       -0.2698
     14 N          15.5544   39.2151    9.9103 N.am    1  UNL1       -0.2779
     15 H          15.4438   39.6088    9.0147 H       1  UNL1        0.1553
     16 C          17.1002   37.2638    9.9355 C.ar    1  UNL1        0.1141
     17 C          16.8057   38.5822   10.1987 C.ar    1  UNL1        0.0908
     18 C          17.9223   39.1579   10.7772 C.ar    1  UNL1        0.1364
     19 N          18.3641   37.0812   10.3580 N.ar    1  UNL1       -0.2187
     20 N          18.8658   38.1994   10.8577 N.ar    1  UNL1       -0.1641
     21 C          19.1116   35.8391   10.2637 C.3     1  UNL1        0.2733
     22 O          18.2372   34.7751   10.0388 O.3     1  UNL1       -0.3311
     23 C          18.7708   34.5391    7.7355 C.3     1  UNL1        0.0347
     24 C          18.9064   33.9595    9.1280 C.3     1  UNL1        0.1446
     25 C           9.1609   42.3946    8.1073 C.3     1  UNL1        0.1324
     26 C           8.3412   41.3819    7.3818 C.ar    1  UNL1        0.0004
     27 C           8.9443   40.5215    6.4573 C.ar    1  UNL1       -0.0024
     28 C           8.1786   39.5569    5.7956 C.ar    1  UNL1       -0.0003
     29 C           6.8099   39.4484    6.0606 C.ar    1  UNL1       -0.0000
     30 C           6.2071   40.3034    6.9887 C.ar    1  UNL1       -0.0003
     31 C           6.9728   41.2681    7.6505 C.ar    1  UNL1       -0.0024
@<TRIPOS>BOND
     1    23    24    1
     2    24    22    1
     3    21    22    1
     4    21    19    1
     5    17    14    1
     6    17    18   ar
     7    12     1    1
     8     2     3   ar
     9     4    11   ar
    10    25    11    1
    11    25    26    1
    12    27    28   ar
    13    29    30   ar
    14    31    26   ar
    15     6     5    1
    16     7     9   ar
    17     8     7    1
    18     9     4   ar
    19    10     1   ar
    20    19    16   ar
    21    19    20   ar
    22    14    12   am
    23    11     5   ar
    24    16    17   ar
    25    12    13    2
    26     1     2   ar
    27     3     4   ar
    28    26    27   ar
    29    28    29   ar
    30    30    31   ar
    31     5     7   ar
    32     9    10   ar
    33    18    20   ar
    34    14    15    1
@<TRIPOS>MOLECULE
MolPort-002-760-240 20615767 CSSS00132999005 MCULE-3714084329 PubChem-19340451 ZINC000020615767 ZINC20615767
 31 34 0 0 0
SMALL
GASTEIGER

@<TRIPOS>ATOM
      1 C           8.4559   41.5868   10.3346 C.ar    1  UNL1        0.0538
      2 C           9.5456   41.3472   11.2075 C.ar    1  UNL1        0.0060
      3 C          10.8550   41.2157   10.7127 C.ar    1  UNL1        0.0173
      4 C          11.0404   41.3304    9.3354 C.ar    1  UNL1        0.0596
      5 C          11.8759   41.4360    7.3449 C.ar    1  UNL1        0.0338
      6 C          12.8636   41.4340    6.2260 C.3     1  UNL1        0.0497
      7 C          10.5059   41.6348    7.2082 C.ar    1  UNL1       -0.0088
      8 C           9.7517   41.8839    5.9469 C.3     1  UNL1        0.0322
      9 C           9.9887   41.5652    8.4849 C.ar    1  UNL1        0.0131
     10 C           8.6818   41.6993    8.9469 C.ar    1  UNL1        0.0057
     11 N          12.1963   41.2449    8.6480 N.ar    1  UNL1       -0.3268
     12 C           7.0910   41.7192   10.8732 C.2     1  UNL1        0.2496
     13 O           6.9050   41.7058   12.1207 O.2     1  UNL1       -0.2698
     14 N           5.9812   41.8584    9.9752 N.am    1  UNL1       -0.2779
     15 H           6.1773   41.8481    9.0105 H       1  UNL1        0.1553
     16 C           4.1191   41.7569   11.6244 C.ar    1  UNL1        0.1141
     17 C           4.6122   42.0112   10.3649 C.ar    1  UNL1        0.0908
     18 C           3.5579   42.4320    9.5747 C.ar    1  UNL1        0.1364
     19 N           2.8022   42.0233   11.5609 N.ar    1  UNL1       -0.2187
     20 N           2.4556   42.4283   10.3495 N.ar    1  UNL1       -0.1641
     21 C           1.8677   41.9159   12.6681 C.3     1  UNL1        0.2733
     22 O           0.8527   42.8629   12.5259 O.3     1  UNL1       -0.3311
     23 C          -0.8893   42.0147   13.9012 C.3     1  UNL1        0.0347
     24 C           0.2872   42.9623   13.7959 C.3     1  UNL1        0.1446
     25 C          13.5320   41.0463    9.2010 C.3     1  UNL1        0.1324
     26 C          13.6584   39.6738    9.7702 C.ar    1  UNL1        0.0004
     27 C          14.0627   39.4985   11.0986 C.ar    1  UNL1       -0.0024
     28 C          14.1577   38.2120   11.6376 C.ar    1  UNL1       -0.0003
     29 C          13.8444   37.0994   10.8506 C.ar    1  UNL1       -0.0000
     30 C          13.4344   37.2734    9.5249 C.ar    1  UNL1       -0.0003
     31 C          13.3393   38.5600    8.9858 C.ar    1  UNL1       -0.0024
@<TRIPOS>BOND
     1    23    24    1
     2    24    22    1
     3    21    22    1
     4    21    19    1
     5    17    14    1
     6    17    18   ar
     7    12     1    1
     8     2     3   ar
     9     4    11   ar
    10    25    11    1
    11    25    26    1
    12    27    28   ar
    13    29    30   ar
    14    31    26   ar
    15     6     5    1
    16     7     9   ar
    17     8     7    1
    18     9     4   ar
    19    10     1   ar
    20    19    16   ar
    21    19    20   ar
    22    14    12   am
    23    11     5   ar
    24    16    17   ar
    25    12    13    2
    26     1     2   ar
    27     3     4   ar
    28    26    27   ar
    29    28    29   ar
    30    30    31   ar
    31     5     7   ar
    32     9    10   ar
    33    18    20   ar
    34    14    15    1
@<TRIPOS>MOLECULE
MolPort-002-760-240 20615767 CSSS00132999005 MCULE-3714084329 PubChem-19340451 ZINC000020615767 ZINC20615767
 31 34 0 0 0
SMALL
GASTEIGER

@<TRIPOS>ATOM
      1 C          10.6838   41.6516    8.7987 C.ar    1  UNL1        0.0538
      2 C          10.7113   40.6710    9.8207 C.ar    1  UNL1        0.0060
      3 C          11.9242   40.1008   10.2454 C.ar    1  UNL1        0.0173
      4 C          13.0952   40.5358    9.6257 C.ar    1  UNL1        0.0596
      5 C          15.1510   40.8483    9.0362 C.ar    1  UNL1        0.0338
      6 C          16.6377   40.7298    8.9806 C.3     1  UNL1        0.0497
      7 C          14.3817   41.6984    8.2486 C.ar    1  UNL1       -0.0088
      8 C          14.8664   42.6498    7.2086 C.3     1  UNL1        0.0322
      9 C          13.0751   41.4877    8.6368 C.ar    1  UNL1        0.0131
     10 C          11.8888   42.0690    8.1961 C.ar    1  UNL1        0.0057
     11 N          14.3579   40.1355    9.8731 N.ar    1  UNL1       -0.3268
     12 C           9.4018   42.2350    8.3665 C.2     1  UNL1        0.2496
     13 O           9.0783   42.2049    7.1477 O.2     1  UNL1       -0.2698
     14 N           8.5310   42.8373    9.3341 N.am    1  UNL1       -0.2779
     15 H           8.8358   42.8487   10.2702 H       1  UNL1        0.1553
     16 C           6.0446   42.7909    9.2183 C.ar    1  UNL1        0.1141
     17 C           7.2557   43.4233    9.0521 C.ar    1  UNL1        0.0908
     18 C           7.0058   44.6973    8.5753 C.ar    1  UNL1        0.1364
     19 N           5.1122   43.6838    8.8407 N.ar    1  UNL1       -0.2187
     20 N           5.6692   44.8221    8.4591 N.ar    1  UNL1       -0.1641
     21 C           3.6766   43.4627    8.8660 C.3     1  UNL1        0.2733
     22 O           3.3250   42.7596   10.0189 O.3     1  UNL1       -0.3311
     23 C           3.5605   40.4367   10.4596 C.3     1  UNL1        0.0347
     24 C           2.9594   41.4956    9.5593 C.3     1  UNL1        0.1446
     25 C          14.7904   39.1725   10.8806 C.3     1  UNL1        0.1324
     26 C          14.4509   37.7854   10.4509 C.ar    1  UNL1        0.0004
     27 C          13.4928   37.0466   11.1544 C.ar    1  UNL1       -0.0024
     28 C          13.1586   35.7551   10.7359 C.ar    1  UNL1       -0.0003
     29 C          13.7787   35.2025    9.6109 C.ar    1  UNL1       -0.0000
     30 C          14.7317   35.9419    8.9034 C.ar    1  UNL1       -0.0003
     31 C          15.0660   37.2335    9.3218 C.ar    1  UNL1       -0.0024
@<TRIPOS>BOND
     1    23    24    1
     2    24    22    1
     3    21    22    1
     4    21    19    1
     5    17    14    1
     6    17    18   ar
     7    12     1    1
     8     2     3   ar
     9     4    11   ar
    10    25    11    1
    11    25    26    1
    12    27    28   ar
    13    29    30   ar
    14    31    26   ar
    15     6     5    1
    16     7     9   ar
    17     8     7    1
    18     9     4   ar
    19    10     1   ar
    20    19    16   ar
    21    19    20   ar
    22    14    12   am
    23    11     5   ar
    24    16    17   ar
    25    12    13    2
    26     1     2   ar
    27     3     4   ar
    28    26    27   ar
    29    28    29   ar
    30    30    31   ar
    31     5     7   ar
    32     9    10   ar
    33    18    20   ar
    34    14    15    1
@<TRIPOS>MOLECULE
MolPort-002-760-240 20615767 CSSS00132999005 MCULE-3714084329 PubChem-19340451 ZINC000020615767 ZINC20615767
 31 34 0 0 0
SMALL
GASTEIGER

@<TRIPOS>ATOM
      1 C          11.7560   41.5081    8.0477 C.ar    1  UNL1        0.0538
      2 C          11.9673   40.5333    9.0537 C.ar    1  UNL1        0.0060
      3 C          13.2635   40.2232    9.5013 C.ar    1  UNL1        0.0173
      4 C          14.3296   40.9093    8.9206 C.ar    1  UNL1        0.0596
      5 C          16.2853   41.6620    8.3917 C.ar    1  UNL1        0.0338
      6 C          17.7643   41.8617    8.3741 C.3     1  UNL1        0.0497
      7 C          15.3716   42.3473    7.5978 C.ar    1  UNL1       -0.0088
      8 C          15.6672   43.4021    6.5870 C.3     1  UNL1        0.0322
      9 C          14.1307   41.8568    7.9473 C.ar    1  UNL1        0.0131
     10 C          12.8586   42.1837    7.4846 C.ar    1  UNL1        0.0057
     11 N          15.6425   40.7797    9.1951 N.ar    1  UNL1       -0.3268
     12 C          10.3896   41.8166    7.5909 C.2     1  UNL1        0.2496
     13 O          10.0386   41.5182    6.4167 O.2     1  UNL1       -0.2698
     14 N           9.4680   42.4582    8.4833 N.am    1  UNL1       -0.2779
     15 H           9.7951   42.6839    9.3840 H       1  UNL1        0.1553
     16 C           7.1048   42.9405    9.0998 C.ar    1  UNL1        0.1141
     17 C           8.1123   42.7977    8.1732 C.ar    1  UNL1        0.0908
     18 C           7.5744   43.0409    6.9224 C.ar    1  UNL1        0.1364
     19 N           6.0037   43.2574    8.3953 N.ar    1  UNL1       -0.2187
     20 N           6.2690   43.3234    7.1004 N.ar    1  UNL1       -0.1641
     21 C           4.6919   43.5245    8.9595 C.3     1  UNL1        0.2733
     22 O           4.4471   42.6556   10.0235 O.3     1  UNL1       -0.3311
     23 C           2.6146   41.2564    9.4490 C.3     1  UNL1        0.0347
     24 C           4.1168   41.4449    9.4170 C.3     1  UNL1        0.1446
     25 C          16.2461   39.9080   10.1978 C.3     1  UNL1        0.1324
     26 C          15.4946   38.6231   10.2874 C.ar    1  UNL1        0.0004
     27 C          14.8000   38.2955   11.4574 C.ar    1  UNL1       -0.0024
     28 C          14.0765   37.1014   11.5310 C.ar    1  UNL1       -0.0003
     29 C          14.0428   36.2356   10.4334 C.ar    1  UNL1       -0.0000
     30 C          14.7313   36.5647    9.2615 C.ar    1  UNL1       -0.0003
     31 C          15.4549   37.7588    9.1878 C.ar    1  UNL1       -0.0024
@<TRIPOS>BOND
     1    23    24    1
     2    24    22    1
     3    21    22    1
     4    21    19    1
     5    17    14    1
     6    17    18   ar
     7    12     1    1
     8     2     3   ar
     9     4    11   ar
    10    25    11    1
    11    25    26    1
    12    27    28   ar
    13    29    30   ar
    14    31    26   ar
    15     6     5    1
    16     7     9   ar
    17     8     7    1
    18     9     4   ar
    19    10     1   ar
    20    19    16   ar
    21    19    20   ar
    22    14    12   am
    23    11     5   ar
    24    16    17   ar
    25    12    13    2
    26     1     2   ar
    27     3     4   ar
    28    26    27   ar
    29    28    29   ar
    30    30    31   ar
    31     5     7   ar
    32     9    10   ar
    33    18    20   ar
    34    14    15    1
@<TRIPOS>MOLECULE
MolPort-002-760-240 20615767 CSSS00132999005 MCULE-3714084329 PubChem-19340451 ZINC000020615767 ZINC20615767
 31 34 0 0 0
SMALL
GASTEIGER

@<TRIPOS>ATOM
      1 C          11.1946   41.4173    8.3669 C.ar    1  UNL1        0.0538
      2 C          10.2983   41.2888    7.2775 C.ar    1  UNL1        0.0060
      3 C           8.9099   41.2147    7.4863 C.ar    1  UNL1        0.0173
      4 C           8.4497   41.2733    8.8014 C.ar    1  UNL1        0.0596
      5 C           7.2271   41.3333   10.5826 C.ar    1  UNL1        0.0338
      6 C           6.0306   41.3379   11.4746 C.3     1  UNL1        0.0497
      7 C           8.5475   41.4397   11.0072 C.ar    1  UNL1       -0.0088
      8 C           9.0362   41.5795   12.4084 C.3     1  UNL1        0.0322
      9 C           9.3133   41.4006    9.8608 C.ar    1  UNL1        0.0131
     10 C          10.6926   41.4756    9.6837 C.ar    1  UNL1        0.0057
     11 N           7.1739   41.2263    9.2324 N.ar    1  UNL1       -0.3268
     12 C          12.6464   41.4908    8.1267 C.2     1  UNL1        0.2496
     13 O          13.0803   42.0070    7.0607 O.2     1  UNL1       -0.2698
     14 N          13.5575   40.9711    9.1049 N.am    1  UNL1       -0.2779
     15 H          13.1686   40.5650    9.9130 H       1  UNL1        0.1553
     16 C          15.7108   41.9353    8.3104 C.ar    1  UNL1        0.1141
     17 C          14.9853   40.9938    9.0041 C.ar    1  UNL1        0.0908
     18 C          15.8795   40.1024    9.5688 C.ar    1  UNL1        0.1364
     19 N          17.0013   41.5910    8.4693 N.ar    1  UNL1       -0.2187
     20 N          17.1163   40.5054    9.2175 N.ar    1  UNL1       -0.1641
     21 C          18.1381   42.3143    7.9260 C.3     1  UNL1        0.2733
     22 O          17.9827   43.6823    8.1533 O.3     1  UNL1       -0.3311
     23 C          17.7905   43.8501    5.7910 C.3     1  UNL1        0.0347
     24 C          17.1375   44.1124    7.1319 C.3     1  UNL1        0.1446
     25 C           5.9731   41.1383    8.4079 C.3     1  UNL1        0.1324
     26 C           5.3683   42.4894    8.2274 C.ar    1  UNL1        0.0004
     27 C           4.1445   42.7980    8.8322 C.ar    1  UNL1       -0.0024
     28 C           3.5907   44.0729    8.6813 C.ar    1  UNL1       -0.0003
     29 C           4.2620   45.0421    7.9294 C.ar    1  UNL1       -0.0000
     30 C           5.4879   44.7370    7.3296 C.ar    1  UNL1       -0.0003
     31 C           6.0418   43.4622    7.4804 C.ar    1  UNL1       -0.0024
@<TRIPOS>BOND
     1    23    24    1
     2    24    22    1
     3    21    22    1
     4    21    19    1
     5    17    14    1
     6    17    18   ar
     7    12     1    1
     8     2     3   ar
     9     4    11   ar
    10    25    11    1
    11    25    26    1
    12    27    28   ar
    13    29    30   ar
    14    31    26   ar
    15     6     5    1
    16     7     9   ar
    17     8     7    1
    18     9     4   ar
    19    10     1   ar
    20    19    16   ar
    21    19    20   ar
    22    14    12   am
    23    11     5   ar
    24    16    17   ar
    25    12    13    2
    26     1     2   ar
    27     3     4   ar
    28    26    27   ar
    29    28    29   ar
    30    30    31   ar
    31     5     7   ar
    32     9    10   ar
    33    18    20   ar
    34    14    15    1
@<TRIPOS>MOLECULE
MolPort-002-760-240 20615767 CSSS00132999005 MCULE-3714084329 PubChem-19340451 ZINC000020615767 ZINC20615767
 31 34 0 0 0
SMALL
GASTEIGER

@<TRIPOS>ATOM
      1 C          11.7621   41.1481    8.1365 C.ar    1  UNL1        0.0538
      2 C          11.5172   40.0656    9.0169 C.ar    1  UNL1        0.0060
      3 C          12.5683   39.4514    9.7201 C.ar    1  UNL1        0.0173
      4 C          13.8565   39.9466    9.5200 C.ar    1  UNL1        0.0596
      5 C          15.9848   40.3149    9.5967 C.ar    1  UNL1        0.0338
      6 C          17.4253   40.1997    9.9697 C.3     1  UNL1        0.0497
      7 C          15.4559   41.2445    8.7074 C.ar    1  UNL1       -0.0088
      8 C          16.1964   42.2987    7.9577 C.3     1  UNL1        0.0322
      9 C          14.0995   40.9970    8.6703 C.ar    1  UNL1        0.0131
     10 C          13.0782   41.6238    7.9608 C.ar    1  UNL1        0.0057
     11 N          15.0022   39.5199   10.0866 N.ar    1  UNL1       -0.3268
     12 C          10.6467   41.7763    7.4071 C.2     1  UNL1        0.2496
     13 O          10.8048   42.1358    6.2085 O.2     1  UNL1       -0.2698
     14 N           9.3889   41.9788    8.0660 N.am    1  UNL1       -0.2779
     15 H           9.3210   41.6944    9.0061 H       1  UNL1        0.1553
     16 C           7.3515   43.4087    8.1128 C.ar    1  UNL1        0.1141
     17 C           8.2240   42.5599    7.4705 C.ar    1  UNL1        0.0908
     18 C           7.7689   42.3856    6.1761 C.ar    1  UNL1        0.1364
     19 N           6.4075   43.7161    7.2054 N.ar    1  UNL1       -0.2187
     20 N           6.6447   43.1174    6.0491 N.ar    1  UNL1       -0.1641
     21 C           5.2822   44.6069    7.4308 C.3     1  UNL1        0.2733
     22 O           4.8989   44.5573    8.7716 O.3     1  UNL1       -0.3311
     23 C           3.8366   42.6969    9.7992 C.3     1  UNL1        0.0347
     24 C           3.7262   43.8041    8.7721 C.3     1  UNL1        0.1446
     25 C          15.1481   38.4556   11.0742 C.3     1  UNL1        0.1324
     26 C          14.6505   37.1633   10.5206 C.ar    1  UNL1        0.0004
     27 C          13.4856   36.5814   11.0335 C.ar    1  UNL1       -0.0024
     28 C          13.0075   35.3820   10.4973 C.ar    1  UNL1       -0.0003
     29 C          13.6910   34.7653    9.4448 C.ar    1  UNL1       -0.0000
     30 C          14.8518   35.3488    8.9272 C.ar    1  UNL1       -0.0003
     31 C          15.3299   36.5483    9.4634 C.ar    1  UNL1       -0.0024
@<TRIPOS>BOND
     1    23    24    1
     2    24    22    1
     3    21    22    1
     4    21    19    1
     5    17    14    1
     6    17    18   ar
     7    12     1    1
     8     2     3   ar
     9     4    11   ar
    10    25    11    1
    11    25    26    1
    12    27    28   ar
    13    29    30   ar
    14    31    26   ar
    15     6     5    1
    16     7     9   ar
    17     8     7    1
    18     9     4   ar
    19    10     1   ar
    20    19    16   ar
    21    19    20   ar
    22    14    12   am
    23    11     5   ar
    24    16    17   ar
    25    12    13    2
    26     1     2   ar
    27     3     4   ar
    28    26    27   ar
    29    28    29   ar
    30    30    31   ar
    31     5     7   ar
    32     9    10   ar
    33    18    20   ar
    34    14    15    1
