@<TRIPOS>MOLECULE
MolPort-007-789-507 ChemDiv-F223-0585 MCULE-9315983738 PubChem-46289723 ZINC000032959596 ZINC32959596
 30 32 0 0 0
SMALL
GASTEIGER

@<TRIPOS>ATOM
      1 C           6.7503   40.3279    6.6624 C.2     1  UNL1        0.2271
      2 O           6.3224   39.5853    5.7400 O.2     1  UNL1       -0.2747
      3 N           6.1471   41.6093    6.8626 N.am    1  UNL1       -0.3001
      4 H           5.4500   41.8909    6.2269 H       1  UNL1        0.1498
      5 C           6.4913   42.5292    7.9424 C.3     1  UNL1        0.1194
      6 C           3.7783   41.8526   11.2183 C.ar    1  UNL1        0.1417
      7 C           5.1294   41.5389   11.3808 C.ar    1  UNL1        0.0735
      8 C           6.0603   41.7854   10.3644 C.ar    1  UNL1        0.1393
      9 C           5.6060   42.3267    9.1327 C.ar    1  UNL1        0.0316
     10 C           4.2551   42.6596    8.9835 C.ar    1  UNL1        0.0035
     11 C           3.3467   42.4291   10.0167 C.ar    1  UNL1        0.0368
     12 C           1.7297   42.3664   12.5056 C.3     1  UNL1        0.2525
     13 O           2.8902   41.5829   12.2631 O.3     1  UNL1       -0.4713
     14 C           8.0496   41.7285   11.8735 C.3     1  UNL1        0.2525
     15 O           7.3990   41.4697   10.6378 O.3     1  UNL1       -0.4716
     16 C           7.8688   39.8481    7.5332 C.3     1  UNL1        0.1113
     17 C           9.1759   40.4109    7.0807 C.ar    1  UNL1       -0.0125
     18 C           9.4774   40.4566    5.7044 C.ar    1  UNL1       -0.0022
     19 C          10.6990   40.9875    5.2562 C.ar    1  UNL1        0.0194
     20 C          11.6035   41.4691    6.2028 C.ar    1  UNL1        0.0892
     21 C          13.4618   42.3805    7.0332 C.ar    1  UNL1        0.1655
     22 C          11.2965   41.4247    7.5536 C.ar    1  UNL1        0.0494
     23 C          10.0949   40.9058    8.0215 C.ar    1  UNL1        0.0043
     24 N          12.8134   42.0038    5.9027 N.ar    1  UNL1       -0.2239
     25 S          12.5684   42.0703    8.4367 S.2     1  UNL1       -0.0514
     26 C          15.2041   43.9967    6.1419 C.2     1  UNL1        0.2280
     27 C          16.5797   44.5422    6.2750 C.3     1  UNL1        0.0950
     28 O          14.4487   44.4356    5.2346 O.2     1  UNL1       -0.2747
     29 N          14.7611   42.9799    7.0459 N.am    1  UNL1       -0.2641
     30 H          15.3987   42.6691    7.7287 H       1  UNL1        0.1567
@<TRIPOS>BOND
     1    12    13    1
     2     6    13    1
     3     7     8   ar
     4     8    15    1
     5    14    15    1
     6     9    10   ar
     7     5     9    1
     8     5     3    1
     9    16     1    1
    10    16    17    1
    11    18    19   ar
    12    20    24   ar
    13    21    29    1
    14    21    25   ar
    15    27    26    1
    16    22    25   ar
    17    22    20   ar
    18    23    17   ar
    19    11     6   ar
    20     3     1   am
    21    29    26   am
    22     6     7   ar
    23     8     9   ar
    24     1     2    2
    25    17    18   ar
    26    19    20   ar
    27    21    24   ar
    28    26    28    2
    29    22    23   ar
    30    10    11   ar
    31     3     4    1
    32    29    30    1
@<TRIPOS>MOLECULE
MolPort-007-789-507 ChemDiv-F223-0585 MCULE-9315983738 PubChem-46289723 ZINC000032959596 ZINC32959596
 30 32 0 0 0
SMALL
GASTEIGER

@<TRIPOS>ATOM
      1 C          10.5240   42.4584    9.4937 C.2     1  UNL1        0.2271
      2 O          11.2935   43.4120    9.7834 O.2     1  UNL1       -0.2747
      3 N           9.4554   42.6807    8.5690 N.am    1  UNL1       -0.3001
      4 H           9.3240   43.5971    8.2339 H       1  UNL1        0.1498
      5 C           8.5461   41.6457    8.0869 C.3     1  UNL1        0.1194
      6 C           4.4641   42.4096    9.2287 C.ar    1  UNL1        0.1417
      7 C           5.3131   43.4907    8.9821 C.ar    1  UNL1        0.0735
      8 C           6.6340   43.2964    8.5608 C.ar    1  UNL1        0.1393
      9 C           7.1241   41.9706    8.4244 C.ar    1  UNL1        0.0316
     10 C           6.2627   40.8915    8.6514 C.ar    1  UNL1        0.0035
     11 C           4.9423   41.1054    9.0470 C.ar    1  UNL1        0.0368
     12 C           2.5825   42.0287   10.7883 C.3     1  UNL1        0.2525
     13 O           3.1554   42.6590    9.6507 O.3     1  UNL1       -0.4713
     14 C           7.7787   45.3931    9.2901 C.3     1  UNL1        0.2525
     15 O           7.3952   44.4458    8.3038 O.3     1  UNL1       -0.4716
     16 C          10.7527   41.1152   10.1125 C.3     1  UNL1        0.1113
     17 C          12.1773   40.6939    9.9611 C.ar    1  UNL1       -0.0125
     18 C          12.9297   41.1581    8.8630 C.ar    1  UNL1       -0.0022
     19 C          14.2736   40.7790    8.7043 C.ar    1  UNL1        0.0194
     20 C          14.8452   39.9361    9.6577 C.ar    1  UNL1        0.0892
     21 C          16.3879   38.6939   10.6824 C.ar    1  UNL1        0.1655
     22 C          14.0992   39.4886   10.7367 C.ar    1  UNL1        0.0494
     23 C          12.7692   39.8504   10.9163 C.ar    1  UNL1        0.0043
     24 N          16.1279   39.4968    9.6203 N.ar    1  UNL1       -0.2239
     25 S          15.0510   38.5000   11.7017 S.2     1  UNL1       -0.0514
     26 C          18.3209   37.1880   10.0203 C.2     1  UNL1        0.2280
     27 C          19.6443   36.6247   10.3927 C.3     1  UNL1        0.0950
     28 O          17.8030   36.8747    8.9157 O.2     1  UNL1       -0.2747
     29 N          17.6557   38.0758   10.9240 N.am    1  UNL1       -0.2641
     30 H          18.1044   38.2767   11.7770 H       1  UNL1        0.1567
@<TRIPOS>BOND
     1    12    13    1
     2     6    13    1
     3     7     8   ar
     4     8    15    1
     5    14    15    1
     6     9    10   ar
     7     5     9    1
     8     5     3    1
     9    16     1    1
    10    16    17    1
    11    18    19   ar
    12    20    24   ar
    13    21    29    1
    14    21    25   ar
    15    27    26    1
    16    22    25   ar
    17    22    20   ar
    18    23    17   ar
    19    11     6   ar
    20     3     1   am
    21    29    26   am
    22     6     7   ar
    23     8     9   ar
    24     1     2    2
    25    17    18   ar
    26    19    20   ar
    27    21    24   ar
    28    26    28    2
    29    22    23   ar
    30    10    11   ar
    31     3     4    1
    32    29    30    1
@<TRIPOS>MOLECULE
MolPort-007-789-507 ChemDiv-F223-0585 MCULE-9315983738 PubChem-46289723 ZINC000032959596 ZINC32959596
 30 32 0 0 0
SMALL
GASTEIGER

@<TRIPOS>ATOM
      1 C           8.5533   40.1768    6.2208 C.2     1  UNL1        0.2271
      2 O           8.1956   40.0590    5.0193 O.2     1  UNL1       -0.2747
      3 N           8.0917   41.2985    6.9791 N.am    1  UNL1       -0.3001
      4 H           7.5522   41.9760    6.5110 H       1  UNL1        0.1498
      5 C           8.3637   41.5101    8.3975 C.3     1  UNL1        0.1194
      6 C           4.6720   41.1669   10.5893 C.ar    1  UNL1        0.1417
      7 C           5.8613   41.3725   11.2919 C.ar    1  UNL1        0.0735
      8 C           7.0806   41.5396   10.6242 C.ar    1  UNL1        0.1393
      9 C           7.1053   41.4556    9.2068 C.ar    1  UNL1        0.0316
     10 C           5.9075   41.2715    8.5071 C.ar    1  UNL1        0.0035
     11 C           4.6988   41.1314    9.1891 C.ar    1  UNL1        0.0368
     12 C           2.6852   42.0989   11.7301 C.3     1  UNL1        0.2525
     13 O           3.4828   41.0024   11.3047 O.3     1  UNL1       -0.4713
     14 C           9.5258   41.3434   11.0939 C.3     1  UNL1        0.2525
     15 O           8.2125   41.7774   11.4170 O.3     1  UNL1       -0.4716
     16 C           9.4406   39.1365    6.8291 C.3     1  UNL1        0.1113
     17 C          10.7715   39.7126    7.1849 C.ar    1  UNL1       -0.0125
     18 C          11.5263   39.1355    8.2261 C.ar    1  UNL1       -0.0022
     19 C          12.7838   39.6578    8.5735 C.ar    1  UNL1        0.0194
     20 C          13.2677   40.7574    7.8642 C.ar    1  UNL1        0.0892
     21 C          14.6508   42.3953    7.2499 C.ar    1  UNL1        0.1655
     22 C          12.5208   41.3152    6.8386 C.ar    1  UNL1        0.0494
     23 C          11.2754   40.8160    6.4755 C.ar    1  UNL1        0.0043
     24 N          14.4621   41.3553    8.1002 N.ar    1  UNL1       -0.2239
     25 S          13.3575   42.6118    6.1802 S.2     1  UNL1       -0.0514
     26 C          17.0878   42.8518    7.7929 C.2     1  UNL1        0.2280
     27 C          18.2232   43.8070    7.7138 C.3     1  UNL1        0.0950
     28 O          17.2592   41.7298    8.3392 O.2     1  UNL1       -0.2747
     29 N          15.8177   43.2235    7.2488 N.am    1  UNL1       -0.2641
     30 H          15.7408   44.1171    6.8429 H       1  UNL1        0.1567
@<TRIPOS>BOND
     1    12    13    1
     2     6    13    1
     3     7     8   ar
     4     8    15    1
     5    14    15    1
     6     9    10   ar
     7     5     9    1
     8     5     3    1
     9    16     1    1
    10    16    17    1
    11    18    19   ar
    12    20    24   ar
    13    21    29    1
    14    21    25   ar
    15    27    26    1
    16    22    25   ar
    17    22    20   ar
    18    23    17   ar
    19    11     6   ar
    20     3     1   am
    21    29    26   am
    22     6     7   ar
    23     8     9   ar
    24     1     2    2
    25    17    18   ar
    26    19    20   ar
    27    21    24   ar
    28    26    28    2
    29    22    23   ar
    30    10    11   ar
    31     3     4    1
    32    29    30    1
@<TRIPOS>MOLECULE
MolPort-007-789-507 ChemDiv-F223-0585 MCULE-9315983738 PubChem-46289723 ZINC000032959596 ZINC32959596
 30 32 0 0 0
SMALL
GASTEIGER

@<TRIPOS>ATOM
      1 C           7.8852   39.9494    6.2273 C.2     1  UNL1        0.2271
      2 O           7.8023   38.7633    5.8129 O.2     1  UNL1       -0.2747
      3 N           7.0804   40.3583    7.3369 N.am    1  UNL1       -0.3001
      4 H           6.4408   39.7055    7.7030 H       1  UNL1        0.1498
      5 C           7.1400   41.6745    7.9651 C.3     1  UNL1        0.1194
      6 C           8.0492   41.5340   12.1728 C.ar    1  UNL1        0.1417
      7 C           6.7147   41.4767   11.7649 C.ar    1  UNL1        0.0735
      8 C           6.3688   41.4694   10.4083 C.ar    1  UNL1        0.1393
      9 C           7.3992   41.5643    9.4356 C.ar    1  UNL1        0.0316
     10 C           8.7354   41.5991    9.8495 C.ar    1  UNL1        0.0035
     11 C           9.0616   41.5808   11.2056 C.ar    1  UNL1        0.0368
     12 C           9.6153   41.1869   14.0555 C.3     1  UNL1        0.2525
     13 O           8.3396   41.5421   13.5397 O.3     1  UNL1       -0.4713
     14 C           3.9657   41.9881   10.8484 C.3     1  UNL1        0.2525
     15 O           5.0042   41.3724   10.1003 O.3     1  UNL1       -0.4716
     16 C           8.8305   40.8974    5.5585 C.3     1  UNL1        0.1113
     17 C          10.1658   40.8789    6.2267 C.ar    1  UNL1       -0.0125
     18 C          10.4552   39.8828    7.1813 C.ar    1  UNL1       -0.0022
     19 C          11.7074   39.8432    7.8178 C.ar    1  UNL1        0.0194
     20 C          12.6562   40.8094    7.4824 C.ar    1  UNL1        0.0892
     21 C          14.5860   41.9270    7.4970 C.ar    1  UNL1        0.1655
     22 C          12.3646   41.7820    6.5391 C.ar    1  UNL1        0.0494
     23 C          11.1343   41.8414    5.8951 C.ar    1  UNL1        0.0043
     24 N          13.8982   40.8826    8.0227 N.ar    1  UNL1       -0.2239
     25 S          13.6908   42.7920    6.3505 S.2     1  UNL1       -0.0514
     26 C          16.5272   43.5516    7.6823 C.2     1  UNL1        0.2280
     27 C          17.9294   43.7709    8.1220 C.3     1  UNL1        0.0950
     28 O          15.8882   44.4998    7.1540 O.2     1  UNL1       -0.2747
     29 N          15.9268   42.2657    7.8647 N.am    1  UNL1       -0.2641
     30 H          16.4780   41.5603    8.2743 H       1  UNL1        0.1567
@<TRIPOS>BOND
     1    12    13    1
     2     6    13    1
     3     7     8   ar
     4     8    15    1
     5    14    15    1
     6     9    10   ar
     7     5     9    1
     8     5     3    1
     9    16     1    1
    10    16    17    1
    11    18    19   ar
    12    20    24   ar
    13    21    29    1
    14    21    25   ar
    15    27    26    1
    16    22    25   ar
    17    22    20   ar
    18    23    17   ar
    19    11     6   ar
    20     3     1   am
    21    29    26   am
    22     6     7   ar
    23     8     9   ar
    24     1     2    2
    25    17    18   ar
    26    19    20   ar
    27    21    24   ar
    28    26    28    2
    29    22    23   ar
    30    10    11   ar
    31     3     4    1
    32    29    30    1
@<TRIPOS>MOLECULE
MolPort-007-789-507 ChemDiv-F223-0585 MCULE-9315983738 PubChem-46289723 ZINC000032959596 ZINC32959596
 30 32 0 0 0
SMALL
GASTEIGER

@<TRIPOS>ATOM
      1 C          10.8398   40.4428    5.1043 C.2     1  UNL1        0.2271
      2 O          10.4792   40.1875    3.9252 O.2     1  UNL1       -0.2747
      3 N          11.6491   41.5961    5.3518 N.am    1  UNL1       -0.3001
      4 H          11.9465   42.1215    4.5741 H       1  UNL1        0.1498
      5 C          12.0654   42.0495    6.6753 C.3     1  UNL1        0.1194
      6 C          16.0877   43.5895    6.6627 C.ar    1  UNL1        0.1417
      7 C          15.7756   42.5146    7.4979 C.ar    1  UNL1        0.0735
      8 C          14.4963   41.9457    7.5033 C.ar    1  UNL1        0.1393
      9 C          13.4915   42.5055    6.6705 C.ar    1  UNL1        0.0316
     10 C          13.8157   43.5681    5.8197 C.ar    1  UNL1        0.0035
     11 C          15.1028   44.1058    5.8106 C.ar    1  UNL1        0.0368
     12 C          18.1818   44.1102    7.8714 C.3     1  UNL1        0.2525
     13 O          17.3791   44.1224    6.6989 O.3     1  UNL1       -0.4713
     14 C          15.2662   40.3314    9.2466 C.3     1  UNL1        0.2525
     15 O          14.2926   40.8466    8.3500 O.3     1  UNL1       -0.4716
     16 C          10.4039   39.5428    6.2176 C.3     1  UNL1        0.1113
     17 C           9.0714   39.9582    6.7483 C.ar    1  UNL1       -0.0125
     18 C           7.9076   39.6929    5.9984 C.ar    1  UNL1       -0.0022
     19 C           6.6429   40.0697    6.4817 C.ar    1  UNL1        0.0194
     20 C           6.5659   40.7093    7.7191 C.ar    1  UNL1        0.0892
     21 C           5.6590   41.7095    9.4940 C.ar    1  UNL1        0.1655
     22 C           7.7150   40.9616    8.4517 C.ar    1  UNL1        0.0494
     23 C           8.9767   40.5976    7.9959 C.ar    1  UNL1        0.0043
     24 N           5.4104   41.1237    8.2960 N.ar    1  UNL1       -0.2239
     25 S           7.3058   41.7350    9.8832 S.2     1  UNL1       -0.0514
     26 C           3.7739   41.4725   11.1770 C.2     1  UNL1        0.2280
     27 C           2.7671   42.1628   12.0239 C.3     1  UNL1        0.0950
     28 O           3.8471   40.2153   11.2020 O.2     1  UNL1       -0.2747
     29 N           4.6426   42.2479   10.3453 N.am    1  UNL1       -0.2641
     30 H           4.5326   43.2261   10.3600 H       1  UNL1        0.1567
@<TRIPOS>BOND
     1    12    13    1
     2     6    13    1
     3     7     8   ar
     4     8    15    1
     5    14    15    1
     6     9    10   ar
     7     5     9    1
     8     5     3    1
     9    16     1    1
    10    16    17    1
    11    18    19   ar
    12    20    24   ar
    13    21    29    1
    14    21    25   ar
    15    27    26    1
    16    22    25   ar
    17    22    20   ar
    18    23    17   ar
    19    11     6   ar
    20     3     1   am
    21    29    26   am
    22     6     7   ar
    23     8     9   ar
    24     1     2    2
    25    17    18   ar
    26    19    20   ar
    27    21    24   ar
    28    26    28    2
    29    22    23   ar
    30    10    11   ar
    31     3     4    1
    32    29    30    1
@<TRIPOS>MOLECULE
MolPort-007-789-507 ChemDiv-F223-0585 MCULE-9315983738 PubChem-46289723 ZINC000032959596 ZINC32959596
 30 32 0 0 0
SMALL
GASTEIGER

@<TRIPOS>ATOM
      1 C           8.2335   39.8809    6.7150 C.2     1  UNL1        0.2271
      2 O           7.9955   38.7424    6.2328 O.2     1  UNL1       -0.2747
      3 N           7.6699   40.2336    7.9815 N.am    1  UNL1       -0.3001
      4 H           7.0618   39.5870    8.4074 H       1  UNL1        0.1498
      5 C           7.9321   41.4840    8.6875 C.3     1  UNL1        0.1194
      6 C           4.4026   43.9481    8.5417 C.ar    1  UNL1        0.1417
      7 C           4.5795   43.0798    9.6212 C.ar    1  UNL1        0.0735
      8 C           5.7321   42.2939    9.7407 C.ar    1  UNL1        0.1393
      9 C           6.7159   42.3567    8.7186 C.ar    1  UNL1        0.0316
     10 C           6.5437   43.2445    7.6509 C.ar    1  UNL1        0.0035
     11 C           5.3997   44.0376    7.5617 C.ar    1  UNL1        0.0368
     12 C           2.9170   45.5270    7.3510 C.3     1  UNL1        0.2525
     13 O           3.2319   44.7077    8.4686 O.3     1  UNL1       -0.4713
     14 C           7.0033   41.3522   11.6734 C.3     1  UNL1        0.2525
     15 O           5.8328   41.4818   10.8794 O.3     1  UNL1       -0.4716
     16 C           9.1083   40.8312    5.9592 C.3     1  UNL1        0.1113
     17 C          10.4899   40.8493    6.5253 C.ar    1  UNL1       -0.0125
     18 C          10.8889   39.8404    7.4254 C.ar    1  UNL1       -0.0022
     19 C          12.1863   39.8347    7.9655 C.ar    1  UNL1        0.0194
     20 C          13.0690   40.8475    7.5895 C.ar    1  UNL1        0.0892
     21 C          14.9496   42.0421    7.4939 C.ar    1  UNL1        0.1655
     22 C          12.6696   41.8325    6.7001 C.ar    1  UNL1        0.0494
     23 C          11.3927   41.8590    6.1514 C.ar    1  UNL1        0.0043
     24 N          14.3444   40.9567    8.0379 N.ar    1  UNL1       -0.2239
     25 S          13.9377   42.9005    6.4436 S.2     1  UNL1       -0.0514
     26 C          16.8340   43.7400    7.5868 C.2     1  UNL1        0.2280
     27 C          18.2561   44.0042    7.9268 C.3     1  UNL1        0.0950
     28 O          16.1197   44.6762    7.1401 O.2     1  UNL1       -0.2747
     29 N          16.3003   42.4252    7.7708 N.am    1  UNL1       -0.2641
     30 H          16.9086   41.7313    8.1140 H       1  UNL1        0.1567
@<TRIPOS>BOND
     1    12    13    1
     2     6    13    1
     3     7     8   ar
     4     8    15    1
     5    14    15    1
     6     9    10   ar
     7     5     9    1
     8     5     3    1
     9    16     1    1
    10    16    17    1
    11    18    19   ar
    12    20    24   ar
    13    21    29    1
    14    21    25   ar
    15    27    26    1
    16    22    25   ar
    17    22    20   ar
    18    23    17   ar
    19    11     6   ar
    20     3     1   am
    21    29    26   am
    22     6     7   ar
    23     8     9   ar
    24     1     2    2
    25    17    18   ar
    26    19    20   ar
    27    21    24   ar
    28    26    28    2
    29    22    23   ar
    30    10    11   ar
    31     3     4    1
    32    29    30    1
@<TRIPOS>MOLECULE
MolPort-007-789-507 ChemDiv-F223-0585 MCULE-9315983738 PubChem-46289723 ZINC000032959596 ZINC32959596
 30 32 0 0 0
SMALL
GASTEIGER

@<TRIPOS>ATOM
      1 C           8.2869   41.9503   11.6736 C.2     1  UNL1        0.2271
      2 O           8.1605   41.8747   12.9241 O.2     1  UNL1       -0.2747
      3 N           7.5279   41.0687   10.8413 N.am    1  UNL1       -0.3001
      4 H           6.9718   40.3876   11.2842 H       1  UNL1        0.1498
      5 C           7.5191   41.1069    9.3822 C.3     1  UNL1        0.1194
      6 C           4.9389   44.3255    8.1438 C.ar    1  UNL1        0.1417
      7 C           6.1505   44.1324    7.4766 C.ar    1  UNL1        0.0735
      8 C           7.0019   43.0714    7.8079 C.ar    1  UNL1        0.1393
      9 C           6.6378   42.2044    8.8720 C.ar    1  UNL1        0.0316
     10 C           5.4126   42.3893    9.5221 C.ar    1  UNL1        0.0035
     11 C           4.5662   43.4377    9.1615 C.ar    1  UNL1        0.0368
     12 C           2.7518   45.2521    7.4544 C.3     1  UNL1        0.2525
     13 O           4.1277   45.4024    7.7763 O.3     1  UNL1       -0.4713
     14 C           8.4411   41.8749    6.1540 C.3     1  UNL1        0.2525
     15 O           8.1778   42.9407    7.0552 O.3     1  UNL1       -0.4716
     16 C           9.2166   42.9668   11.0888 C.3     1  UNL1        0.1113
     17 C          10.3786   42.3061   10.4232 C.ar    1  UNL1       -0.0125
     18 C          10.8870   42.8349    9.2194 C.ar    1  UNL1       -0.0022
     19 C          11.9836   42.2325    8.5794 C.ar    1  UNL1        0.0194
     20 C          12.5574   41.1027    9.1627 C.ar    1  UNL1        0.0892
     21 C          13.9430   39.3773    9.4394 C.ar    1  UNL1        0.1655
     22 C          12.0541   40.5927   10.3491 C.ar    1  UNL1        0.0494
     23 C          10.9716   41.1711   11.0017 C.ar    1  UNL1        0.0043
     24 N          13.6157   40.4289    8.6473 N.ar    1  UNL1       -0.2239
     25 S          12.9439   39.2434   10.7987 S.2     1  UNL1       -0.0514
     26 C          14.8786   37.0627    8.9817 C.2     1  UNL1        0.2280
     27 C          16.0818   36.2421    8.6875 C.3     1  UNL1        0.0950
     28 O          13.7534   36.5035    9.0683 O.2     1  UNL1       -0.2747
     29 N          15.0189   38.4750    9.1637 N.am    1  UNL1       -0.2641
     30 H          15.9245   38.8549    9.0941 H       1  UNL1        0.1567
@<TRIPOS>BOND
     1    12    13    1
     2     6    13    1
     3     7     8   ar
     4     8    15    1
     5    14    15    1
     6     9    10   ar
     7     5     9    1
     8     5     3    1
     9    16     1    1
    10    16    17    1
    11    18    19   ar
    12    20    24   ar
    13    21    29    1
    14    21    25   ar
    15    27    26    1
    16    22    25   ar
    17    22    20   ar
    18    23    17   ar
    19    11     6   ar
    20     3     1   am
    21    29    26   am
    22     6     7   ar
    23     8     9   ar
    24     1     2    2
    25    17    18   ar
    26    19    20   ar
    27    21    24   ar
    28    26    28    2
    29    22    23   ar
    30    10    11   ar
    31     3     4    1
    32    29    30    1
@<TRIPOS>MOLECULE
MolPort-007-789-507 ChemDiv-F223-0585 MCULE-9315983738 PubChem-46289723 ZINC000032959596 ZINC32959596
 30 32 0 0 0
SMALL
GASTEIGER

@<TRIPOS>ATOM
      1 C          10.9123   41.5677    9.6851 C.2     1  UNL1        0.2271
      2 O           9.8925   42.2770    9.8911 O.2     1  UNL1       -0.2747
      3 N          11.4574   41.4969    8.3644 N.am    1  UNL1       -0.3001
      4 H          10.9748   41.9645    7.6449 H       1  UNL1        0.1498
      5 C          12.6781   40.7807    8.0076 C.3     1  UNL1        0.1194
      6 C          15.4401   43.6094    6.2986 C.ar    1  UNL1        0.1417
      7 C          15.8738   42.7789    7.3343 C.ar    1  UNL1        0.0735
      8 C          15.0304   41.8095    7.8905 C.ar    1  UNL1        0.1393
      9 C          13.6968   41.7037    7.4143 C.ar    1  UNL1        0.0316
     10 C          13.2746   42.5232    6.3615 C.ar    1  UNL1        0.0035
     11 C          14.1373   43.4668    5.8037 C.ar    1  UNL1        0.0368
     12 C          17.7175   44.3308    5.6579 C.3     1  UNL1        0.2525
     13 O          16.3210   44.5630    5.7814 O.3     1  UNL1       -0.4713
     14 C          16.9303   41.0265    9.3101 C.3     1  UNL1        0.2525
     15 O          15.5706   41.0004    8.9004 O.3     1  UNL1       -0.4716
     16 C          11.5357   40.8274   10.8265 C.3     1  UNL1        0.1113
     17 C          12.0446   39.4953   10.3836 C.ar    1  UNL1       -0.0125
     18 C          11.1332   38.4994    9.9776 C.ar    1  UNL1       -0.0022
     19 C          11.5907   37.2409    9.5514 C.ar    1  UNL1        0.0194
     20 C          12.9649   37.0010    9.5376 C.ar    1  UNL1        0.0892
     21 C          14.8853   35.9051    9.2472 C.ar    1  UNL1        0.1655
     22 C          13.8538   37.9877    9.9339 C.ar    1  UNL1        0.0494
     23 C          13.4262   39.2404   10.3581 C.ar    1  UNL1        0.0043
     24 N          13.5341   35.8323    9.1505 N.ar    1  UNL1       -0.2239
     25 S          15.4232   37.4080    9.8093 S.2     1  UNL1       -0.0514
     26 C          16.7128   34.8541    7.8338 C.2     1  UNL1        0.2280
     27 C          17.5805   33.6709    7.5999 C.3     1  UNL1        0.0950
     28 O          16.8197   35.8589    7.0818 O.2     1  UNL1       -0.2747
     29 N          15.7686   34.8314    8.9086 N.am    1  UNL1       -0.2641
     30 H          15.7232   34.0150    9.4569 H       1  UNL1        0.1567
@<TRIPOS>BOND
     1    12    13    1
     2     6    13    1
     3     7     8   ar
     4     8    15    1
     5    14    15    1
     6     9    10   ar
     7     5     9    1
     8     5     3    1
     9    16     1    1
    10    16    17    1
    11    18    19   ar
    12    20    24   ar
    13    21    29    1
    14    21    25   ar
    15    27    26    1
    16    22    25   ar
    17    22    20   ar
    18    23    17   ar
    19    11     6   ar
    20     3     1   am
    21    29    26   am
    22     6     7   ar
    23     8     9   ar
    24     1     2    2
    25    17    18   ar
    26    19    20   ar
    27    21    24   ar
    28    26    28    2
    29    22    23   ar
    30    10    11   ar
    31     3     4    1
    32    29    30    1
@<TRIPOS>MOLECULE
MolPort-007-789-507 ChemDiv-F223-0585 MCULE-9315983738 PubChem-46289723 ZINC000032959596 ZINC32959596
 30 32 0 0 0
SMALL
GASTEIGER

@<TRIPOS>ATOM
      1 C           9.9306   40.6619   10.7384 C.2     1  UNL1        0.2271
      2 O          10.3593   41.0404   11.8602 O.2     1  UNL1       -0.2747
      3 N           8.7610   41.2798   10.1940 N.am    1  UNL1       -0.3001
      4 H           8.2950   41.9457   10.7496 H       1  UNL1        0.1498
      5 C           8.2091   40.9934    8.8734 C.3     1  UNL1        0.1194
      6 C           5.4993   44.1766    7.8368 C.ar    1  UNL1        0.1417
      7 C           6.4259   43.7387    6.8880 C.ar    1  UNL1        0.0735
      8 C           7.2953   42.6750    7.1580 C.ar    1  UNL1        0.1393
      9 C           7.2555   42.0627    8.4386 C.ar    1  UNL1        0.0316
     10 C           6.3103   42.4909    9.3773 C.ar    1  UNL1        0.0035
     11 C           5.4357   43.5364    9.0812 C.ar    1  UNL1        0.0368
     12 C           3.2450   45.1799    7.6654 C.3     1  UNL1        0.2525
     13 O           4.6569   45.2449    7.5175 O.3     1  UNL1       -0.4713
     14 C           9.5070   41.8692    6.3230 C.3     1  UNL1        0.2525
     15 O           8.1633   42.2859    6.1276 O.3     1  UNL1       -0.4716
     16 C          10.6603   39.5858    9.9975 C.3     1  UNL1        0.1113
     17 C          12.0631   40.0014    9.6985 C.ar    1  UNL1       -0.0125
     18 C          13.1320   39.4054   10.3981 C.ar    1  UNL1       -0.0022
     19 C          14.4601   39.7772   10.1284 C.ar    1  UNL1        0.0194
     20 C          14.6958   40.7463    9.1530 C.ar    1  UNL1        0.0892
     21 C          15.8314   42.1329    7.8259 C.ar    1  UNL1        0.1655
     22 C          13.6390   41.3233    8.4667 C.ar    1  UNL1        0.0494
     23 C          12.3172   40.9716    8.7143 C.ar    1  UNL1        0.0043
     24 N          15.9268   41.1931    8.7995 N.ar    1  UNL1       -0.2239
     25 S          14.2322   42.4432    7.3673 S.2     1  UNL1       -0.0514
     26 C          16.9010   43.6627    6.1060 C.2     1  UNL1        0.2280
     27 C          18.1499   44.2950    5.6080 C.3     1  UNL1        0.0950
     28 O          15.8110   43.8991    5.5209 O.2     1  UNL1       -0.2747
     29 N          16.9581   42.7937    7.2414 N.am    1  UNL1       -0.2641
     30 H          17.8395   42.6386    7.6516 H       1  UNL1        0.1567
@<TRIPOS>BOND
     1    12    13    1
     2     6    13    1
     3     7     8   ar
     4     8    15    1
     5    14    15    1
     6     9    10   ar
     7     5     9    1
     8     5     3    1
     9    16     1    1
    10    16    17    1
    11    18    19   ar
    12    20    24   ar
    13    21    29    1
    14    21    25   ar
    15    27    26    1
    16    22    25   ar
    17    22    20   ar
    18    23    17   ar
    19    11     6   ar
    20     3     1   am
    21    29    26   am
    22     6     7   ar
    23     8     9   ar
    24     1     2    2
    25    17    18   ar
    26    19    20   ar
    27    21    24   ar
    28    26    28    2
    29    22    23   ar
    30    10    11   ar
    31     3     4    1
    32    29    30    1
@<TRIPOS>MOLECULE
MolPort-007-789-507 ChemDiv-F223-0585 MCULE-9315983738 PubChem-46289723 ZINC000032959596 ZINC32959596
 30 32 0 0 0
SMALL
GASTEIGER

@<TRIPOS>ATOM
      1 C          11.9122   40.0810   10.5128 C.2     1  UNL1        0.2271
      2 O          11.0280   40.4595   11.3255 O.2     1  UNL1       -0.2747
      3 N          11.6229   40.0929    9.1120 N.am    1  UNL1       -0.3001
      4 H          10.7122   40.3443    8.8353 H       1  UNL1        0.1498
      5 C          12.5820   39.7588    8.0636 C.3     1  UNL1        0.1194
      6 C          14.7396   43.1632    6.5451 C.ar    1  UNL1        0.1417
      7 C          13.5002   42.8418    5.9874 C.ar    1  UNL1        0.0735
      8 C          12.7369   41.7753    6.4776 C.ar    1  UNL1        0.1393
      9 C          13.2596   40.9850    7.5353 C.ar    1  UNL1        0.0316
     10 C          14.4917   41.3250    8.1048 C.ar    1  UNL1        0.0035
     11 C          15.2266   42.4064    7.6187 C.ar    1  UNL1        0.0368
     12 C          16.8770   44.3311    6.1150 C.3     1  UNL1        0.2525
     13 O          15.4626   44.2355    6.0158 O.3     1  UNL1       -0.4713
     14 C          10.2409   41.8662    6.4763 C.3     1  UNL1        0.2525
     15 O          11.4898   41.5560    5.8751 O.3     1  UNL1       -0.4716
     16 C          13.2456   39.6405   11.0299 C.3     1  UNL1        0.1113
     17 C          13.5799   38.2690   10.5428 C.ar    1  UNL1       -0.0125
     18 C          12.6374   37.2300   10.6812 C.ar    1  UNL1       -0.0022
     19 C          12.9287   35.9333   10.2244 C.ar    1  UNL1        0.0194
     20 C          14.1690   35.6992    9.6302 C.ar    1  UNL1        0.0892
     21 C          15.8242   34.5856    8.6335 C.ar    1  UNL1        0.1655
     22 C          15.0876   36.7280    9.4938 C.ar    1  UNL1        0.0494
     23 C          14.8224   38.0188    9.9363 C.ar    1  UNL1        0.0043
     24 N          14.5730   34.4967    9.1500 N.ar    1  UNL1       -0.2239
     25 S          16.4727   36.1445    8.7485 S.2     1  UNL1       -0.0514
     26 C          17.6779   32.8519    8.6156 C.2     1  UNL1        0.2280
     27 C          18.3040   31.7060    7.9067 C.3     1  UNL1        0.0950
     28 O          18.1708   33.2511    9.7038 O.2     1  UNL1       -0.2747
     29 N          16.5263   33.4843    8.0488 N.am    1  UNL1       -0.2641
     30 H          16.1915   33.1352    7.1913 H       1  UNL1        0.1567
@<TRIPOS>BOND
     1    12    13    1
     2     6    13    1
     3     7     8   ar
     4     8    15    1
     5    14    15    1
     6     9    10   ar
     7     5     9    1
     8     5     3    1
     9    16     1    1
    10    16    17    1
    11    18    19   ar
    12    20    24   ar
    13    21    29    1
    14    21    25   ar
    15    27    26    1
    16    22    25   ar
    17    22    20   ar
    18    23    17   ar
    19    11     6   ar
    20     3     1   am
    21    29    26   am
    22     6     7   ar
    23     8     9   ar
    24     1     2    2
    25    17    18   ar
    26    19    20   ar
    27    21    24   ar
    28    26    28    2
    29    22    23   ar
    30    10    11   ar
    31     3     4    1
    32    29    30    1
