@<TRIPOS>MOLECULE
MolPort-039-138-684 261494877 MCULE-4726689180 MCULE-5610323746 PubChem-102594534 ZINC000261494877
 35 37 0 0 0
SMALL
GASTEIGER

@<TRIPOS>ATOM
      1 C          10.0128   43.1439   10.1749 C.2     1  UNL1        0.0000
      2 N          10.3302   42.1404    9.2023 N.am    1  UNL1        0.0000
      3 O          10.8531   44.0285   10.4920 O.2     1  UNL1        0.0000
      4 H           9.5875   41.5743    8.8905 H       1  UNL1        0.0000
      5 C          11.6219   41.8794    8.6386 C.ar    1  UNL1        0.0000
      6 C          11.9946   42.3750    7.3797 C.ar    1  UNL1        0.0000
      7 C          13.2734   42.1263    6.8736 C.ar    1  UNL1        0.0000
      8 C          14.1881   41.3828    7.6236 C.ar    1  UNL1        0.0000
      9 C          13.8266   40.8864    8.8803 C.ar    1  UNL1        0.0000
     10 C          12.5451   41.1375    9.3833 C.ar    1  UNL1        0.0000
     11 C          15.2871   37.8769    9.4845 C.3     1  UNL1        0.0000
     12 C          14.5081   37.1819    8.3664 C.3     1  UNL1        0.0000
     13 C          16.5223   37.0196    9.7451 C.3     1  UNL1        0.0000
     14 C          14.4252   38.1488   10.7874 C.3     1  UNL1        0.0000
     15 C          12.9693   37.6903   10.6676 C.3     1  UNL1        0.0000
     16 C          14.9862   37.4728   12.0353 C.3     1  UNL1        0.0000
     17 O          15.7321   39.1205    9.0105 O.3     1  UNL1        0.0000
     18 O          14.4392   39.5338   11.0134 O.3     1  UNL1        0.0000
     19 B          14.8452   40.0348    9.7108 B       1  UNL1        0.0000
     20 C           8.6466   43.1424   10.7942 C.3     1  UNL1        0.0000
     21 C           7.4732   41.8749    8.8933 C.2     1  UNL1        0.0000
     22 N           7.6111   43.0001    9.7691 N.am    1  UNL1        0.0000
     23 O           8.2702   40.8998    8.9749 O.2     1  UNL1        0.0000
     24 H           6.9605   43.7329    9.6746 H       1  UNL1        0.0000
     25 O           6.4355   41.8636    7.9581 O.3     1  UNL1        0.0000
     26 C           5.2171   42.5724    8.1596 C.3     1  UNL1        0.0000
     27 C           4.5118   42.0598    9.3697 C.ar    1  UNL1        0.0000
     28 C           3.9500   42.9558   10.2854 C.ar    1  UNL1        0.0000
     29 C           3.3127   42.4765   11.4336 C.ar    1  UNL1        0.0000
     30 C           3.2409   41.1005   11.6702 C.ar    1  UNL1        0.0000
     31 C           3.8074   40.2028   10.7598 C.ar    1  UNL1        0.0000
     32 C           4.4451   40.6827    9.6116 C.ar    1  UNL1        0.0000
     33 C           7.1444   41.4171   11.8438 C.3     1  UNL1        0.0000
     34 C           8.4934   42.1107   11.9210 C.3     1  UNL1        0.0000
     35 C           9.5780   41.0534   11.8263 C.3     1  UNL1        0.0000
@<TRIPOS>BOND
     1    33    34    1
     2    34    35    1
     3    20    34    1
     4    20    22    1
     5    20     1    1
     6    21    25    1
     7    26    25    1
     8    26    27    1
     9    28    29   ar
    10    30    31   ar
    11    32    27   ar
    12     1     2   am
    13     6     7   ar
    14     8     9   ar
    15     9    19    1
    16    10     5   ar
    17    11    17    1
    18    11    12    1
    19    11    13    1
    20    11    14    1
    21    14    15    1
    22    14    16    1
    23    14    18    1
    24    22    21   am
    25     2     5    1
    26    19    17    1
    27    19    18    1
    28    21    23    2
    29    27    28   ar
    30    29    30   ar
    31    31    32   ar
    32     1     3    2
    33     5     6   ar
    34     7     8   ar
    35     9    10   ar
    36    22    24    1
    37     2     4    1
@<TRIPOS>MOLECULE
MolPort-039-138-684 261494877 MCULE-4726689180 MCULE-5610323746 PubChem-102594534 ZINC000261494877
 35 37 0 0 0
SMALL
GASTEIGER

@<TRIPOS>ATOM
      1 C           5.8312   41.3899   10.7200 C.2     1  UNL1        0.0000
      2 N           6.8078   41.6134    9.6952 N.am    1  UNL1        0.0000
      3 O           6.0368   41.7671   11.9051 O.2     1  UNL1        0.0000
      4 H           6.5280   41.4326    8.7688 H       1  UNL1        0.0000
      5 C           8.1517   42.0742    9.8857 C.ar    1  UNL1        0.0000
      6 C           8.4622   43.4405    9.9634 C.ar    1  UNL1        0.0000
      7 C           9.7797   43.8537   10.1799 C.ar    1  UNL1        0.0000
      8 C          10.7943   42.9037   10.3223 C.ar    1  UNL1        0.0000
      9 C          10.4942   41.5396   10.2483 C.ar    1  UNL1        0.0000
     10 C           9.1738   41.1301   10.0313 C.ar    1  UNL1        0.0000
     11 C          13.4664   40.3062    9.1529 C.3     1  UNL1        0.0000
     12 C          13.6072   41.3797    8.0722 C.3     1  UNL1        0.0000
     13 C          14.8727   39.7768    9.4187 C.3     1  UNL1        0.0000
     14 C          12.4253   39.1674    8.7876 C.3     1  UNL1        0.0000
     15 C          11.7374   39.3745    7.4356 C.3     1  UNL1        0.0000
     16 C          13.0447   37.7733    8.7443 C.3     1  UNL1        0.0000
     17 O          13.0189   40.9190   10.3334 O.3     1  UNL1        0.0000
     18 O          11.4442   39.1640    9.7911 O.3     1  UNL1        0.0000
     19 B          11.6354   40.4761   10.3864 B       1  UNL1        0.0000
     20 C           4.5401   40.7204   10.3530 C.3     1  UNL1        0.0000
     21 C           2.8792   41.9240   11.8989 C.2     1  UNL1        0.0000
     22 N           3.5971   40.7602   11.4721 N.am    1  UNL1        0.0000
     23 O           3.0242   43.0221   11.2938 O.2     1  UNL1        0.0000
     24 H           3.4449   39.9239   11.9689 H       1  UNL1        0.0000
     25 O           2.0047   41.8245   12.9836 O.3     1  UNL1        0.0000
     26 C           1.1496   42.8931   13.3767 C.3     1  UNL1        0.0000
     27 C           0.0960   42.3990   14.3097 C.ar    1  UNL1        0.0000
     28 C          -0.0037   42.9318   15.5993 C.ar    1  UNL1        0.0000
     29 C          -0.9735   42.4498   16.4834 C.ar    1  UNL1        0.0000
     30 C          -1.8416   41.4308   16.0806 C.ar    1  UNL1        0.0000
     31 C          -1.7399   40.8918   14.7943 C.ar    1  UNL1        0.0000
     32 C          -0.7695   41.3739   13.9104 C.ar    1  UNL1        0.0000
     33 C           2.4225   41.0351    9.0295 C.3     1  UNL1        0.0000
     34 C           3.9238   41.2630    9.0554 C.3     1  UNL1        0.0000
     35 C           4.1811   42.7530    8.9259 C.3     1  UNL1        0.0000
@<TRIPOS>BOND
     1    33    34    1
     2    34    35    1
     3    20    34    1
     4    20    22    1
     5    20     1    1
     6    21    25    1
     7    26    25    1
     8    26    27    1
     9    28    29   ar
    10    30    31   ar
    11    32    27   ar
    12     1     2   am
    13     6     7   ar
    14     8     9   ar
    15     9    19    1
    16    10     5   ar
    17    11    17    1
    18    11    12    1
    19    11    13    1
    20    11    14    1
    21    14    15    1
    22    14    16    1
    23    14    18    1
    24    22    21   am
    25     2     5    1
    26    19    17    1
    27    19    18    1
    28    21    23    2
    29    27    28   ar
    30    29    30   ar
    31    31    32   ar
    32     1     3    2
    33     5     6   ar
    34     7     8   ar
    35     9    10   ar
    36    22    24    1
    37     2     4    1
@<TRIPOS>MOLECULE
MolPort-039-138-684 261494877 MCULE-4726689180 MCULE-5610323746 PubChem-102594534 ZINC000261494877
 35 37 0 0 0
SMALL
GASTEIGER

@<TRIPOS>ATOM
      1 C          12.3172   38.4867    9.0134 C.2     1  UNL1        0.0000
      2 N          12.2601   38.9289    7.6514 N.am    1  UNL1        0.0000
      3 O          11.4245   38.8161    9.8402 O.2     1  UNL1        0.0000
      4 H          12.8989   38.5187    7.0247 H       1  UNL1        0.0000
      5 C          11.3648   39.9096    7.1115 C.ar    1  UNL1        0.0000
      6 C          11.3244   40.1996    5.7391 C.ar    1  UNL1        0.0000
      7 C          10.4177   41.1404    5.2430 C.ar    1  UNL1        0.0000
      8 C           9.5444   41.7952    6.1152 C.ar    1  UNL1        0.0000
      9 C           9.5759   41.5113    7.4845 C.ar    1  UNL1        0.0000
     10 C          10.4854   40.5688    7.9772 C.ar    1  UNL1        0.0000
     11 C           6.4312   41.9548    8.6966 C.3     1  UNL1        0.0000
     12 C           5.8433   40.8636    7.8001 C.3     1  UNL1        0.0000
     13 C           5.4598   42.1240    9.8612 C.3     1  UNL1        0.0000
     14 C           6.7380   43.3100    7.9327 C.3     1  UNL1        0.0000
     15 C           6.4147   43.2590    6.4370 C.3     1  UNL1        0.0000
     16 C           5.9764   44.5068    8.4953 C.3     1  UNL1        0.0000
     17 O           7.6445   41.4896    9.2267 O.3     1  UNL1        0.0000
     18 O           8.1086   43.5711    8.0839 O.3     1  UNL1        0.0000
     19 B           8.6118   42.2616    8.4642 B       1  UNL1        0.0000
     20 C          13.4483   37.5970    9.4366 C.3     1  UNL1        0.0000
     21 C          15.0869   39.5748    9.4123 C.2     1  UNL1        0.0000
     22 N          14.7392   38.2145    9.1277 N.am    1  UNL1        0.0000
     23 O          14.2601   40.3403    9.9809 O.2     1  UNL1        0.0000
     24 H          15.4198   37.6526    8.6914 H       1  UNL1        0.0000
     25 O          16.3583   40.0388    9.0668 O.3     1  UNL1        0.0000
     26 C          16.8354   41.3228    9.4562 C.3     1  UNL1        0.0000
     27 C          16.7237   42.2844    8.3216 C.ar    1  UNL1        0.0000
     28 C          15.5148   42.4143    7.6297 C.ar    1  UNL1        0.0000
     29 C          15.4176   43.2956    6.5488 C.ar    1  UNL1        0.0000
     30 C          16.5305   44.0444    6.1554 C.ar    1  UNL1        0.0000
     31 C          17.7419   43.9118    6.8412 C.ar    1  UNL1        0.0000
     32 C          17.8390   43.0299    7.9220 C.ar    1  UNL1        0.0000
     33 C          12.7261   35.7745   11.0151 C.3     1  UNL1        0.0000
     34 C          13.3536   37.1530   10.9034 C.3     1  UNL1        0.0000
     35 C          14.7329   37.1004   11.5341 C.3     1  UNL1        0.0000
@<TRIPOS>BOND
     1    33    34    1
     2    34    35    1
     3    20    34    1
     4    20    22    1
     5    20     1    1
     6    21    25    1
     7    26    25    1
     8    26    27    1
     9    28    29   ar
    10    30    31   ar
    11    32    27   ar
    12     1     2   am
    13     6     7   ar
    14     8     9   ar
    15     9    19    1
    16    10     5   ar
    17    11    17    1
    18    11    12    1
    19    11    13    1
    20    11    14    1
    21    14    15    1
    22    14    16    1
    23    14    18    1
    24    22    21   am
    25     2     5    1
    26    19    17    1
    27    19    18    1
    28    21    23    2
    29    27    28   ar
    30    29    30   ar
    31    31    32   ar
    32     1     3    2
    33     5     6   ar
    34     7     8   ar
    35     9    10   ar
    36    22    24    1
    37     2     4    1
@<TRIPOS>MOLECULE
MolPort-039-138-684 261494877 MCULE-4726689180 MCULE-5610323746 PubChem-102594534 ZINC000261494877
 35 37 0 0 0
SMALL
GASTEIGER

@<TRIPOS>ATOM
      1 C           9.9414   41.3377    7.4735 C.2     1  UNL1        0.0000
      2 N          10.1673   40.7043    8.7390 N.am    1  UNL1        0.0000
      3 O           9.2161   42.3647    7.3826 O.2     1  UNL1        0.0000
      4 H          10.8572   40.0025    8.7669 H       1  UNL1        0.0000
      5 C           9.4880   40.9914    9.9681 C.ar    1  UNL1        0.0000
      6 C          10.0611   40.7023   11.2161 C.ar    1  UNL1        0.0000
      7 C           9.3833   41.0234   12.3953 C.ar    1  UNL1        0.0000
      8 C           8.1297   41.6373   12.3345 C.ar    1  UNL1        0.0000
      9 C           7.5512   41.9311   11.0953 C.ar    1  UNL1        0.0000
     10 C           8.2332   41.6079    9.9169 C.ar    1  UNL1        0.0000
     11 C           4.1697   41.5848   11.0953 C.3     1  UNL1        0.0000
     12 C           4.2431   40.0646   11.2494 C.3     1  UNL1        0.0000
     13 C           2.7841   41.9998   11.5817 C.3     1  UNL1        0.0000
     14 C           4.4991   42.0931    9.6299 C.3     1  UNL1        0.0000
     15 C           4.8565   40.9678    8.6551 C.3     1  UNL1        0.0000
     16 C           3.3527   42.8689    8.9872 C.3     1  UNL1        0.0000
     17 O           5.1094   42.1658   11.9605 O.3     1  UNL1        0.0000
     18 O           5.5961   42.9627    9.7284 O.3     1  UNL1        0.0000
     19 B           6.1366   42.5994   11.0279 B       1  UNL1        0.0000
     20 C          10.6079   40.7727    6.2543 C.3     1  UNL1        0.0000
     21 C          12.9392   41.4240    7.1133 C.2     1  UNL1        0.0000
     22 N          12.0227   40.5004    6.5140 N.am    1  UNL1        0.0000
     23 O          12.5489   42.5688    7.4738 O.2     1  UNL1        0.0000
     24 H          12.3706   39.6159    6.2574 H       1  UNL1        0.0000
     25 O          14.2668   41.0358    7.3081 O.3     1  UNL1        0.0000
     26 C          15.0233   41.4423    8.4440 C.3     1  UNL1        0.0000
     27 C          14.8497   40.4677    9.5596 C.ar    1  UNL1        0.0000
     28 C          13.5968   40.3070   10.1609 C.ar    1  UNL1        0.0000
     29 C          13.4398   39.4137   11.2247 C.ar    1  UNL1        0.0000
     30 C          14.5366   38.6835   11.6918 C.ar    1  UNL1        0.0000
     31 C          15.7915   38.8468   11.0968 C.ar    1  UNL1        0.0000
     32 C          15.9483   39.7409   10.0331 C.ar    1  UNL1        0.0000
     33 C           8.3821   39.7986    5.5968 C.3     1  UNL1        0.0000
     34 C           9.8785   39.5513    5.6764 C.3     1  UNL1        0.0000
     35 C          10.3842   39.2404    4.2797 C.3     1  UNL1        0.0000
@<TRIPOS>BOND
     1    33    34    1
     2    34    35    1
     3    20    34    1
     4    20    22    1
     5    20     1    1
     6    21    25    1
     7    26    25    1
     8    26    27    1
     9    28    29   ar
    10    30    31   ar
    11    32    27   ar
    12     1     2   am
    13     6     7   ar
    14     8     9   ar
    15     9    19    1
    16    10     5   ar
    17    11    17    1
    18    11    12    1
    19    11    13    1
    20    11    14    1
    21    14    15    1
    22    14    16    1
    23    14    18    1
    24    22    21   am
    25     2     5    1
    26    19    17    1
    27    19    18    1
    28    21    23    2
    29    27    28   ar
    30    29    30   ar
    31    31    32   ar
    32     1     3    2
    33     5     6   ar
    34     7     8   ar
    35     9    10   ar
    36    22    24    1
    37     2     4    1
@<TRIPOS>MOLECULE
MolPort-039-138-684 261494877 MCULE-4726689180 MCULE-5610323746 PubChem-102594534 ZINC000261494877
 35 37 0 0 0
SMALL
GASTEIGER

@<TRIPOS>ATOM
      1 C           6.5280   41.4875   10.8263 C.2     1  UNL1        0.0000
      2 N           7.4463   41.4950    9.7261 N.am    1  UNL1        0.0000
      3 O           6.9320   41.6490   12.0094 O.2     1  UNL1        0.0000
      4 H           7.0558   41.5143    8.8225 H       1  UNL1        0.0000
      5 C           8.8770   41.4772    9.8111 C.ar    1  UNL1        0.0000
      6 C           9.6174   42.6384   10.0812 C.ar    1  UNL1        0.0000
      7 C          11.0097   42.5789   10.1869 C.ar    1  UNL1        0.0000
      8 C          11.6702   41.3584   10.0256 C.ar    1  UNL1        0.0000
      9 C          10.9407   40.1953    9.7582 C.ar    1  UNL1        0.0000
     10 C           9.5467   40.2591    9.6529 C.ar    1  UNL1        0.0000
     11 C          13.4243   38.0713   10.6939 C.3     1  UNL1        0.0000
     12 C          13.9104   38.9997   11.8083 C.3     1  UNL1        0.0000
     13 C          13.9239   36.6741   11.0498 C.3     1  UNL1        0.0000
     14 C          13.8535   38.5406    9.2413 C.3     1  UNL1        0.0000
     15 C          14.6480   39.8494    9.2283 C.3     1  UNL1        0.0000
     16 C          14.7067   37.5139    8.5018 C.3     1  UNL1        0.0000
     17 O          12.0218   38.0357   10.7243 O.3     1  UNL1        0.0000
     18 O          12.6766   38.7262    8.4998 O.3     1  UNL1        0.0000
     19 B          11.6836   38.8316    9.5560 B       1  UNL1        0.0000
     20 C           5.0653   41.3109   10.5445 C.3     1  UNL1        0.0000
     21 C           2.8471   42.0567   11.6031 C.2     1  UNL1        0.0000
     22 N           4.2571   41.8096   11.6587 N.am    1  UNL1        0.0000
     23 O           2.2007   41.8350   10.5420 O.2     1  UNL1        0.0000
     24 H           4.7173   41.9885   12.5104 H       1  UNL1        0.0000
     25 O           2.1939   42.5313   12.7429 O.3     1  UNL1        0.0000
     26 C           0.7745   42.5690   12.8507 C.3     1  UNL1        0.0000
     27 C           0.3675   43.2399   14.1190 C.ar    1  UNL1        0.0000
     28 C           0.5835   42.6063   15.3474 C.ar    1  UNL1        0.0000
     29 C           0.1774   43.2228   16.5346 C.ar    1  UNL1        0.0000
     30 C          -0.4499   44.4715   16.4945 C.ar    1  UNL1        0.0000
     31 C          -0.6730   45.1042   15.2675 C.ar    1  UNL1        0.0000
     32 C          -0.2670   44.4870   14.0802 C.ar    1  UNL1        0.0000
     33 C           5.0439   43.3676    9.0937 C.3     1  UNL1        0.0000
     34 C           4.6310   41.9098    9.1989 C.3     1  UNL1        0.0000
     35 C           5.2663   41.1512    8.0483 C.3     1  UNL1        0.0000
@<TRIPOS>BOND
     1    33    34    1
     2    34    35    1
     3    20    34    1
     4    20    22    1
     5    20     1    1
     6    21    25    1
     7    26    25    1
     8    26    27    1
     9    28    29   ar
    10    30    31   ar
    11    32    27   ar
    12     1     2   am
    13     6     7   ar
    14     8     9   ar
    15     9    19    1
    16    10     5   ar
    17    11    17    1
    18    11    12    1
    19    11    13    1
    20    11    14    1
    21    14    15    1
    22    14    16    1
    23    14    18    1
    24    22    21   am
    25     2     5    1
    26    19    17    1
    27    19    18    1
    28    21    23    2
    29    27    28   ar
    30    29    30   ar
    31    31    32   ar
    32     1     3    2
    33     5     6   ar
    34     7     8   ar
    35     9    10   ar
    36    22    24    1
    37     2     4    1
@<TRIPOS>MOLECULE
MolPort-039-138-684 261494877 MCULE-4726689180 MCULE-5610323746 PubChem-102594534 ZINC000261494877
 35 37 0 0 0
SMALL
GASTEIGER

@<TRIPOS>ATOM
      1 C          11.4937   37.8850    8.9625 C.2     1  UNL1        0.0000
      2 N          11.2933   38.7226    7.8170 N.am    1  UNL1        0.0000
      3 O          10.5218   37.3127    9.5253 O.2     1  UNL1        0.0000
      4 H          12.1004   39.0174    7.3364 H       1  UNL1        0.0000
      5 C          10.0340   39.1737    7.3019 C.ar    1  UNL1        0.0000
      6 C           9.1238   38.2941    6.6960 C.ar    1  UNL1        0.0000
      7 C           7.8918   38.7629    6.2317 C.ar    1  UNL1        0.0000
      8 C           7.5611   40.1131    6.3722 C.ar    1  UNL1        0.0000
      9 C           8.4610   40.9971    6.9766 C.ar    1  UNL1        0.0000
     10 C           9.6936   40.5236    7.4400 C.ar    1  UNL1        0.0000
     11 C           7.6557   43.6235    8.9787 C.3     1  UNL1        0.0000
     12 C           7.7479   42.7850   10.2548 C.3     1  UNL1        0.0000
     13 C           7.8256   45.0783    9.4070 C.3     1  UNL1        0.0000
     14 C           6.3343   43.3657    8.1411 C.3     1  UNL1        0.0000
     15 C           5.4156   42.3052    8.7539 C.3     1  UNL1        0.0000
     16 C           5.4810   44.6176    7.9576 C.3     1  UNL1        0.0000
     17 O           8.7436   43.2995    8.1536 O.3     1  UNL1        0.0000
     18 O           6.7284   42.9312    6.8663 O.3     1  UNL1        0.0000
     19 B           8.0986   42.5144    7.1141 B       1  UNL1        0.0000
     20 C          12.8902   37.6760    9.4684 C.3     1  UNL1        0.0000
     21 C          14.9353   39.2293    9.4240 C.2     1  UNL1        0.0000
     22 N          13.5563   38.9587    9.7016 N.am    1  UNL1        0.0000
     23 O          15.6756   38.3341    8.9306 O.2     1  UNL1        0.0000
     24 H          13.0156   39.6906   10.0775 H       1  UNL1        0.0000
     25 O          15.4466   40.5014    9.6916 O.3     1  UNL1        0.0000
     26 C          16.7368   40.9146    9.2531 C.3     1  UNL1        0.0000
     27 C          16.6237   42.0871    8.3383 C.ar    1  UNL1        0.0000
     28 C          15.4349   42.3170    7.6377 C.ar    1  UNL1        0.0000
     29 C          15.3377   43.4003    6.7593 C.ar    1  UNL1        0.0000
     30 C          16.4310   44.2522    6.5767 C.ar    1  UNL1        0.0000
     31 C          17.6227   44.0210    7.2709 C.ar    1  UNL1        0.0000
     32 C          17.7197   42.9370    8.1490 C.ar    1  UNL1        0.0000
     33 C          13.3621   35.3465   10.2963 C.3     1  UNL1        0.0000
     34 C          12.9586   36.7552   10.6953 C.3     1  UNL1        0.0000
     35 C          13.9740   37.2755   11.6959 C.3     1  UNL1        0.0000
@<TRIPOS>BOND
     1    33    34    1
     2    34    35    1
     3    20    34    1
     4    20    22    1
     5    20     1    1
     6    21    25    1
     7    26    25    1
     8    26    27    1
     9    28    29   ar
    10    30    31   ar
    11    32    27   ar
    12     1     2   am
    13     6     7   ar
    14     8     9   ar
    15     9    19    1
    16    10     5   ar
    17    11    17    1
    18    11    12    1
    19    11    13    1
    20    11    14    1
    21    14    15    1
    22    14    16    1
    23    14    18    1
    24    22    21   am
    25     2     5    1
    26    19    17    1
    27    19    18    1
    28    21    23    2
    29    27    28   ar
    30    29    30   ar
    31    31    32   ar
    32     1     3    2
    33     5     6   ar
    34     7     8   ar
    35     9    10   ar
    36    22    24    1
    37     2     4    1
@<TRIPOS>MOLECULE
MolPort-039-138-684 261494877 MCULE-4726689180 MCULE-5610323746 PubChem-102594534 ZINC000261494877
 35 37 0 0 0
SMALL
GASTEIGER

@<TRIPOS>ATOM
      1 C          10.5170   40.5294    9.0263 C.2     1  UNL1        0.0000
      2 N          10.5545   39.6429   10.1516 N.am    1  UNL1        0.0000
      3 O          11.1329   40.2526    7.9619 O.2     1  UNL1        0.0000
      4 H           9.9369   39.8402   10.8925 H       1  UNL1        0.0000
      5 C          11.4021   38.4972   10.3051 C.ar    1  UNL1        0.0000
      6 C          10.9920   37.2143    9.9112 C.ar    1  UNL1        0.0000
      7 C          11.8559   36.1242   10.0477 C.ar    1  UNL1        0.0000
      8 C          13.1356   36.3101   10.5765 C.ar    1  UNL1        0.0000
      9 C          13.5542   37.5854   10.9702 C.ar    1  UNL1        0.0000
     10 C          12.6860   38.6742   10.8320 C.ar    1  UNL1        0.0000
     11 C          16.6327   39.0111   10.7576 C.3     1  UNL1        0.0000
     12 C          16.2955   39.7404    9.4559 C.3     1  UNL1        0.0000
     13 C          17.8011   39.7670   11.3838 C.3     1  UNL1        0.0000
     14 C          16.9173   37.4631   10.5651 C.3     1  UNL1        0.0000
     15 C          16.7718   36.9871    9.1172 C.3     1  UNL1        0.0000
     16 C          18.3141   37.0446   11.0155 C.3     1  UNL1        0.0000
     17 O          15.5403   39.1299   11.6304 O.3     1  UNL1        0.0000
     18 O          15.9908   36.7684   11.3579 O.3     1  UNL1        0.0000
     19 B          14.9808   37.7892   11.5830 B       1  UNL1        0.0000
     20 C           9.7058   41.7872    9.1250 C.3     1  UNL1        0.0000
     21 C           7.5002   42.3475    7.9339 C.2     1  UNL1        0.0000
     22 N           8.3036   41.5292    8.7925 N.am    1  UNL1        0.0000
     23 O           7.9902   43.3743    7.3875 O.2     1  UNL1        0.0000
     24 H           7.8809   40.7333    9.1888 H       1  UNL1        0.0000
     25 O           6.1721   41.9858    7.6964 O.3     1  UNL1        0.0000
     26 C           5.5870   40.8144    8.2559 C.3     1  UNL1        0.0000
     27 C           4.7430   41.1672    9.4339 C.ar    1  UNL1        0.0000
     28 C           5.1352   40.7770   10.7188 C.ar    1  UNL1        0.0000
     29 C           4.3306   41.0837   11.8202 C.ar    1  UNL1        0.0000
     30 C           3.1303   41.7767   11.6375 C.ar    1  UNL1        0.0000
     31 C           2.7327   42.1623   10.3535 C.ar    1  UNL1        0.0000
     32 C           3.5375   41.8549    9.2520 C.ar    1  UNL1        0.0000
     33 C           9.9446   44.0076   10.2859 C.3     1  UNL1        0.0000
     34 C           9.8598   42.5030   10.4747 C.3     1  UNL1        0.0000
     35 C           8.6758   42.2025   11.3752 C.3     1  UNL1        0.0000
@<TRIPOS>BOND
     1    33    34    1
     2    34    35    1
     3    20    34    1
     4    20    22    1
     5    20     1    1
     6    21    25    1
     7    26    25    1
     8    26    27    1
     9    28    29   ar
    10    30    31   ar
    11    32    27   ar
    12     1     2   am
    13     6     7   ar
    14     8     9   ar
    15     9    19    1
    16    10     5   ar
    17    11    17    1
    18    11    12    1
    19    11    13    1
    20    11    14    1
    21    14    15    1
    22    14    16    1
    23    14    18    1
    24    22    21   am
    25     2     5    1
    26    19    17    1
    27    19    18    1
    28    21    23    2
    29    27    28   ar
    30    29    30   ar
    31    31    32   ar
    32     1     3    2
    33     5     6   ar
    34     7     8   ar
    35     9    10   ar
    36    22    24    1
    37     2     4    1
@<TRIPOS>MOLECULE
MolPort-039-138-684 261494877 MCULE-4726689180 MCULE-5610323746 PubChem-102594534 ZINC000261494877
 35 37 0 0 0
SMALL
GASTEIGER

@<TRIPOS>ATOM
      1 C          10.0063   38.8572    7.7544 C.2     1  UNL1        0.0000
      2 N          11.0605   39.0756    8.7003 N.am    1  UNL1        0.0000
      3 O           9.3508   37.7805    7.7509 O.2     1  UNL1        0.0000
      4 H          11.4307   39.9865    8.7495 H       1  UNL1        0.0000
      5 C          11.6292   38.0988    9.5818 C.ar    1  UNL1        0.0000
      6 C          10.9562   36.9101    9.9032 C.ar    1  UNL1        0.0000
      7 C          11.5534   35.9657   10.7426 C.ar    1  UNL1        0.0000
      8 C          12.8278   36.2026   11.2640 C.ar    1  UNL1        0.0000
      9 C          13.5073   37.3836   10.9479 C.ar    1  UNL1        0.0000
     10 C          12.9057   38.3267   10.1071 C.ar    1  UNL1        0.0000
     11 C          16.5113   38.9568   10.7104 C.3     1  UNL1        0.0000
     12 C          16.1300   39.6654    9.4094 C.3     1  UNL1        0.0000
     13 C          17.6458   39.7703   11.3266 C.3     1  UNL1        0.0000
     14 C          16.8695   37.4240   10.5194 C.3     1  UNL1        0.0000
     15 C          16.7373   36.9377    9.0737 C.3     1  UNL1        0.0000
     16 C          18.2881   37.0752   10.9610 C.3     1  UNL1        0.0000
     17 O          15.4204   39.0247   11.5906 O.3     1  UNL1        0.0000
     18 O          15.9835   36.6872   11.3204 O.3     1  UNL1        0.0000
     19 B          14.9266   37.6582   11.5502 B       1  UNL1        0.0000
     20 C           9.6740   39.9477    6.7795 C.3     1  UNL1        0.0000
     21 C           7.8673   41.7655    6.9487 C.2     1  UNL1        0.0000
     22 N           9.0093   41.0639    7.4544 N.am    1  UNL1        0.0000
     23 O           7.3473   41.4311    5.8484 O.2     1  UNL1        0.0000
     24 H           9.3748   41.3544    8.3212 H       1  UNL1        0.0000
     25 O           7.3267   42.8142    7.6965 O.3     1  UNL1        0.0000
     26 C           5.9269   42.9531    7.9179 C.3     1  UNL1        0.0000
     27 C           5.5043   42.1414    9.0957 C.ar    1  UNL1        0.0000
     28 C           4.2500   41.5220    9.1059 C.ar    1  UNL1        0.0000
     29 C           3.8423   40.7838   10.2210 C.ar    1  UNL1        0.0000
     30 C           4.6866   40.6683   11.3292 C.ar    1  UNL1        0.0000
     31 C           5.9382   41.2917   11.3243 C.ar    1  UNL1        0.0000
     32 C           6.3455   42.0304   10.2090 C.ar    1  UNL1        0.0000
     33 C          10.5832   40.3250    4.4630 C.3     1  UNL1        0.0000
     34 C          10.8816   40.4073    5.9499 C.3     1  UNL1        0.0000
     35 C          11.2420   41.8431    6.2840 C.3     1  UNL1        0.0000
@<TRIPOS>BOND
     1    33    34    1
     2    34    35    1
     3    20    34    1
     4    20    22    1
     5    20     1    1
     6    21    25    1
     7    26    25    1
     8    26    27    1
     9    28    29   ar
    10    30    31   ar
    11    32    27   ar
    12     1     2   am
    13     6     7   ar
    14     8     9   ar
    15     9    19    1
    16    10     5   ar
    17    11    17    1
    18    11    12    1
    19    11    13    1
    20    11    14    1
    21    14    15    1
    22    14    16    1
    23    14    18    1
    24    22    21   am
    25     2     5    1
    26    19    17    1
    27    19    18    1
    28    21    23    2
    29    27    28   ar
    30    29    30   ar
    31    31    32   ar
    32     1     3    2
    33     5     6   ar
    34     7     8   ar
    35     9    10   ar
    36    22    24    1
    37     2     4    1
@<TRIPOS>MOLECULE
MolPort-039-138-684 261494877 MCULE-4726689180 MCULE-5610323746 PubChem-102594534 ZINC000261494877
 35 37 0 0 0
SMALL
GASTEIGER

@<TRIPOS>ATOM
      1 C          13.8688   39.0648    9.0955 C.2     1  UNL1        0.0000
      2 N          12.9912   40.1745    8.8671 N.am    1  UNL1        0.0000
      3 O          13.5404   37.8970    8.7528 O.2     1  UNL1        0.0000
      4 H          13.3637   41.0731    9.0185 H       1  UNL1        0.0000
      5 C          11.6247   40.1054    8.4399 C.ar    1  UNL1        0.0000
      6 C          11.1872   39.1513    7.5084 C.ar    1  UNL1        0.0000
      7 C           9.8412   39.0930    7.1369 C.ar    1  UNL1        0.0000
      8 C           8.9239   39.9865    7.6958 C.ar    1  UNL1        0.0000
      9 C           9.3500   40.9396    8.6266 C.ar    1  UNL1        0.0000
     10 C          10.6987   40.9947    8.9957 C.ar    1  UNL1        0.0000
     11 C           6.1331   41.9963    8.9261 C.3     1  UNL1        0.0000
     12 C           5.5961   40.8788    8.0301 C.3     1  UNL1        0.0000
     13 C           4.9562   42.4710    9.7736 C.3     1  UNL1        0.0000
     14 C           6.8442   43.1670    8.1273 C.3     1  UNL1        0.0000
     15 C           6.8839   42.9420    6.6134 C.3     1  UNL1        0.0000
     16 C           6.1901   44.5291    8.3412 C.3     1  UNL1        0.0000
     17 O           7.0847   41.4480    9.7996 O.3     1  UNL1        0.0000
     18 O           8.1628   43.2515    8.6001 O.3     1  UNL1        0.0000
     19 B           8.3251   41.9547    9.2362 B       1  UNL1        0.0000
     20 C          15.2048   39.3195    9.7281 C.3     1  UNL1        0.0000
     21 C          17.0411   41.0579    9.2776 C.2     1  UNL1        0.0000
     22 N          15.6692   40.6764    9.4341 N.am    1  UNL1        0.0000
     23 O          17.9594   40.1981    9.3799 O.2     1  UNL1        0.0000
     24 H          14.9873   41.3797    9.3365 H       1  UNL1        0.0000
     25 O          17.3488   42.3908    8.9948 O.3     1  UNL1        0.0000
     26 C          17.6367   42.8458    7.6765 C.3     1  UNL1        0.0000
     27 C          16.3997   43.3644    7.0242 C.ar    1  UNL1        0.0000
     28 C          15.2418   42.5799    6.9944 C.ar    1  UNL1        0.0000
     29 C          14.0903   43.0544    6.3593 C.ar    1  UNL1        0.0000
     30 C          14.0969   44.3120    5.7488 C.ar    1  UNL1        0.0000
     31 C          15.2549   45.0956    5.7715 C.ar    1  UNL1        0.0000
     32 C          16.4066   44.6204    6.4064 C.ar    1  UNL1        0.0000
     33 C          13.8368   39.0825   11.8274 C.3     1  UNL1        0.0000
     34 C          15.2320   39.0099   11.2318 C.3     1  UNL1        0.0000
     35 C          15.7831   37.6177   11.4792 C.3     1  UNL1        0.0000
@<TRIPOS>BOND
     1    33    34    1
     2    34    35    1
     3    20    34    1
     4    20    22    1
     5    20     1    1
     6    21    25    1
     7    26    25    1
     8    26    27    1
     9    28    29   ar
    10    30    31   ar
    11    32    27   ar
    12     1     2   am
    13     6     7   ar
    14     8     9   ar
    15     9    19    1
    16    10     5   ar
    17    11    17    1
    18    11    12    1
    19    11    13    1
    20    11    14    1
    21    14    15    1
    22    14    16    1
    23    14    18    1
    24    22    21   am
    25     2     5    1
    26    19    17    1
    27    19    18    1
    28    21    23    2
    29    27    28   ar
    30    29    30   ar
    31    31    32   ar
    32     1     3    2
    33     5     6   ar
    34     7     8   ar
    35     9    10   ar
    36    22    24    1
    37     2     4    1
@<TRIPOS>MOLECULE
MolPort-039-138-684 261494877 MCULE-4726689180 MCULE-5610323746 PubChem-102594534 ZINC000261494877
 35 37 0 0 0
SMALL
GASTEIGER

@<TRIPOS>ATOM
      1 C          10.1989   42.8194    9.6244 C.2     1  UNL1        0.0000
      2 N          10.8032   42.0162    8.6029 N.am    1  UNL1        0.0000
      3 O          10.8786   43.6549   10.2794 O.2     1  UNL1        0.0000
      4 H          10.1949   41.4956    8.0300 H       1  UNL1        0.0000
      5 C          12.2058   41.8959    8.3328 C.ar    1  UNL1        0.0000
      6 C          12.8357   42.6550    7.3347 C.ar    1  UNL1        0.0000
      7 C          14.2112   42.5342    7.1185 C.ar    1  UNL1        0.0000
      8 C          14.9657   41.6557    7.9001 C.ar    1  UNL1        0.0000
      9 C          14.3472   40.8963    8.8987 C.ar    1  UNL1        0.0000
     10 C          12.9697   41.0201    9.1118 C.ar    1  UNL1        0.0000
     11 C          15.3579   37.7047    9.4882 C.3     1  UNL1        0.0000
     12 C          14.5671   37.1482    8.3028 C.3     1  UNL1        0.0000
     13 C          16.4505   36.6841    9.7933 C.3     1  UNL1        0.0000
     14 C          14.4579   38.0561   10.7455 C.3     1  UNL1        0.0000
     15 C          12.9650   37.7989   10.5236 C.3     1  UNL1        0.0000
     16 C          14.8445   37.2801   12.0014 C.3     1  UNL1        0.0000
     17 O          15.9918   38.8895    9.0835 O.3     1  UNL1        0.0000
     18 O          14.6395   39.4207   11.0182 O.3     1  UNL1        0.0000
     19 B          15.1900   39.8958    9.7597 B       1  UNL1        0.0000
     20 C           8.7294   42.6697    9.8854 C.3     1  UNL1        0.0000
     21 C           7.4986   42.2688    7.6669 C.2     1  UNL1        0.0000
     22 N           8.1076   41.8075    8.8787 N.am    1  UNL1        0.0000
     23 O           7.4778   43.5000    7.3904 O.2     1  UNL1        0.0000
     24 H           8.1080   40.8375    9.0473 H       1  UNL1        0.0000
     25 O           6.9420   41.3371    6.7875 O.3     1  UNL1        0.0000
     26 C           7.4290   40.0035    6.6777 C.3     1  UNL1        0.0000
     27 C           8.5875   39.9491    5.7399 C.ar    1  UNL1        0.0000
     28 C           8.7602   38.8413    4.9033 C.ar    1  UNL1        0.0000
     29 C           9.8608   38.7775    4.0437 C.ar    1  UNL1        0.0000
     30 C          10.7930   39.8191    4.0233 C.ar    1  UNL1        0.0000
     31 C          10.6263   40.9247    4.8632 C.ar    1  UNL1        0.0000
     32 C           9.5255   40.9880    5.7232 C.ar    1  UNL1        0.0000
     33 C           7.0245   41.6003   11.3969 C.3     1  UNL1        0.0000
     34 C           8.4118   42.2130   11.3166 C.3     1  UNL1        0.0000
     35 C           9.4176   41.1754   11.7802 C.3     1  UNL1        0.0000
@<TRIPOS>BOND
     1    33    34    1
     2    34    35    1
     3    20    34    1
     4    20    22    1
     5    20     1    1
     6    21    25    1
     7    26    25    1
     8    26    27    1
     9    28    29   ar
    10    30    31   ar
    11    32    27   ar
    12     1     2   am
    13     6     7   ar
    14     8     9   ar
    15     9    19    1
    16    10     5   ar
    17    11    17    1
    18    11    12    1
    19    11    13    1
    20    11    14    1
    21    14    15    1
    22    14    16    1
    23    14    18    1
    24    22    21   am
    25     2     5    1
    26    19    17    1
    27    19    18    1
    28    21    23    2
    29    27    28   ar
    30    29    30   ar
    31    31    32   ar
    32     1     3    2
    33     5     6   ar
    34     7     8   ar
    35     9    10   ar
    36    22    24    1
    37     2     4    1
