@<TRIPOS>MOLECULE
MolPort-001-659-628 2730708 CSSS00132994376 MCULE-4414717107 PubChem-19585148 ZINC000002730708 ZINC02730708
 28 30 0 0 0
SMALL
GASTEIGER

@<TRIPOS>ATOM
      1 C          17.1644   39.3993   10.5974 C.3     1  UNL1        0.1111
      2 C          16.7411   40.3897    9.5672 C.2     1  UNL1        0.2280
      3 O          15.6690   40.2063    8.9310 O.2     1  UNL1       -0.2747
      4 N          17.5551   41.5426    9.3272 N.am    1  UNL1       -0.2814
      5 H          18.3916   41.6203    9.8404 H       1  UNL1        0.1549
      6 C          16.0861   42.6898    7.6777 C.ar    1  UNL1        0.1140
      7 C          17.2519   42.5915    8.4019 C.ar    1  UNL1        0.0906
      8 C          18.0489   43.6717    8.0698 C.ar    1  UNL1        0.1364
      9 N          16.2096   43.8061    6.9379 N.ar    1  UNL1       -0.2187
     10 N          17.3694   44.4015    7.1635 N.ar    1  UNL1       -0.1641
     11 C          15.2070   44.3241    6.0229 C.3     1  UNL1        0.2733
     12 O          14.4549   43.2717    5.4983 O.3     1  UNL1       -0.3311
     13 C          12.7542   41.9202    6.4600 C.3     1  UNL1        0.0347
     14 C          13.2450   43.3279    6.1882 C.3     1  UNL1        0.1446
     15 C          16.4179   38.0835   10.4313 C.3     1  UNL1        0.1655
     16 O          15.2316   38.8491   12.7348 O.2     1  UNL1       -0.1686
     17 O          14.7953   36.5689   11.9616 O.2     1  UNL1       -0.1686
     18 S          15.0072   37.9910   11.5211 S.O2    1  UNL1        0.0092
     19 C          13.5852   38.5580   10.6655 C.ar    1  UNL1        0.1057
     20 C          13.1265   37.8663    9.5375 C.ar    1  UNL1        0.0183
     21 C          11.9886   38.3059    8.8545 C.ar    1  UNL1        0.0013
     22 C          11.3027   39.4389    9.2990 C.ar    1  UNL1        0.0001
     23 C          10.1636   39.8840    8.6225 C.ar    1  UNL1        0.0000
     24 C           9.4803   41.0169    9.0762 C.ar    1  UNL1        0.0000
     25 C           9.9331   41.7064   10.2060 C.ar    1  UNL1        0.0000
     26 C          11.0728   41.2677   10.8878 C.ar    1  UNL1        0.0000
     27 C          11.7616   40.1370   10.4401 C.ar    1  UNL1        0.0013
     28 C          12.8996   39.6914   11.1169 C.ar    1  UNL1        0.0183
@<TRIPOS>BOND
     1    13    14    1
     2    14    12    1
     3    11    12    1
     4    11     9    1
     5     7     4    1
     6     7     8   ar
     7     1     2    1
     8     1    15    1
     9    15    18    1
    10    20    21   ar
    11    22    23   ar
    12    24    25   ar
    13    26    27   ar
    14    27    22   ar
    15    28    19   ar
    16     9     6   ar
    17     9    10   ar
    18     4     2   am
    19    18    19    1
    20     6     7   ar
    21     2     3    2
    22    19    20   ar
    23    21    22   ar
    24    23    24   ar
    25    25    26   ar
    26    27    28   ar
    27     8    10   ar
    28    18    16    2
    29    18    17    2
    30     4     5    1
@<TRIPOS>MOLECULE
MolPort-001-659-628 2730708 CSSS00132994376 MCULE-4414717107 PubChem-19585148 ZINC000002730708 ZINC02730708
 28 30 0 0 0
SMALL
GASTEIGER

@<TRIPOS>ATOM
      1 C          16.6440   39.6030   10.4452 C.3     1  UNL1        0.1111
      2 C          16.3399   40.5657    9.3488 C.2     1  UNL1        0.2280
      3 O          17.2823   41.1783    8.7792 O.2     1  UNL1       -0.2747
      4 N          14.9796   40.7683    8.9512 N.am    1  UNL1       -0.2814
      5 H          14.2856   40.2770    9.4474 H       1  UNL1        0.1549
      6 C          15.3626   42.4829    7.1882 C.ar    1  UNL1        0.1140
      7 C          14.5464   41.6268    7.8913 C.ar    1  UNL1        0.0906
      8 C          13.2647   41.7552    7.3883 C.ar    1  UNL1        0.1364
      9 N          14.5647   43.0974    6.2969 N.ar    1  UNL1       -0.2187
     10 N          13.3162   42.6720    6.4021 N.ar    1  UNL1       -0.1641
     11 C          14.9962   44.0832    5.3208 C.3     1  UNL1        0.2733
     12 O          15.6416   45.1390    5.9668 O.3     1  UNL1       -0.3311
     13 C          17.7008   44.0636    5.4695 C.3     1  UNL1        0.0347
     14 C          16.7640   44.5569    6.5537 C.3     1  UNL1        0.1446
     15 C          15.9829   38.2562   10.1902 C.3     1  UNL1        0.1655
     16 O          14.8202   38.6855   12.5909 O.2     1  UNL1       -0.1686
     17 O          14.3997   36.5259   11.5202 O.2     1  UNL1       -0.1686
     18 S          14.5888   37.9973   11.2747 S.O2    1  UNL1        0.0092
     19 C          13.1484   38.6561   10.5218 C.ar    1  UNL1        0.1057
     20 C          12.6550   38.0875    9.3409 C.ar    1  UNL1        0.0183
     21 C          11.5023   38.6004    8.7386 C.ar    1  UNL1        0.0013
     22 C          10.8362   39.6837    9.3171 C.ar    1  UNL1        0.0001
     23 C           9.6825   40.2013    8.7219 C.ar    1  UNL1        0.0000
     24 C           9.0193   41.2836    9.3095 C.ar    1  UNL1        0.0000
     25 C           9.5068   41.8498   10.4921 C.ar    1  UNL1        0.0000
     26 C          10.6612   41.3378   11.0932 C.ar    1  UNL1        0.0000
     27 C          11.3301   40.2572   10.5117 C.ar    1  UNL1        0.0013
     28 C          12.4827   39.7390   11.1072 C.ar    1  UNL1        0.0183
@<TRIPOS>BOND
     1    13    14    1
     2    14    12    1
     3    11    12    1
     4    11     9    1
     5     7     4    1
     6     7     8   ar
     7     1     2    1
     8     1    15    1
     9    15    18    1
    10    20    21   ar
    11    22    23   ar
    12    24    25   ar
    13    26    27   ar
    14    27    22   ar
    15    28    19   ar
    16     9     6   ar
    17     9    10   ar
    18     4     2   am
    19    18    19    1
    20     6     7   ar
    21     2     3    2
    22    19    20   ar
    23    21    22   ar
    24    23    24   ar
    25    25    26   ar
    26    27    28   ar
    27     8    10   ar
    28    18    16    2
    29    18    17    2
    30     4     5    1
@<TRIPOS>MOLECULE
MolPort-001-659-628 2730708 CSSS00132994376 MCULE-4414717107 PubChem-19585148 ZINC000002730708 ZINC02730708
 28 30 0 0 0
SMALL
GASTEIGER

@<TRIPOS>ATOM
      1 C          11.1381   41.0642    6.3935 C.3     1  UNL1        0.1111
      2 C          12.5300   41.5690    6.5644 C.2     1  UNL1        0.2280
      3 O          13.3329   40.9416    7.3057 O.2     1  UNL1       -0.2747
      4 N          12.9361   42.7535    5.8706 N.am    1  UNL1       -0.2814
      5 H          12.2583   43.2114    5.3227 H       1  UNL1        0.1549
      6 C          15.1161   43.2338    6.9714 C.ar    1  UNL1        0.1140
      7 C          14.2470   43.3265    5.9087 C.ar    1  UNL1        0.0906
      8 C          14.8697   44.0599    4.9153 C.ar    1  UNL1        0.1364
      9 N          16.2203   43.9050    6.5989 N.ar    1  UNL1       -0.2187
     10 N          16.0891   44.3981    5.3780 N.ar    1  UNL1       -0.1641
     11 C          17.4206   44.0620    7.4023 C.3     1  UNL1        0.2733
     12 O          17.2475   43.4398    8.6398 O.3     1  UNL1       -0.3311
     13 C          16.9872   41.1591    9.2518 C.3     1  UNL1        0.0347
     14 C          17.8039   42.1724    8.4755 C.3     1  UNL1        0.1446
     15 C          10.1747   41.7901    7.3213 C.3     1  UNL1        0.1655
     16 O           8.3166   39.8577    7.6571 O.2     1  UNL1       -0.1686
     17 O           8.6517   41.4151    9.5143 O.2     1  UNL1       -0.1686
     18 S           9.3413   40.6531    8.4165 S.O2    1  UNL1        0.0092
     19 C          10.5228   39.5606    9.1136 C.ar    1  UNL1        0.1057
     20 C          10.4657   38.1919    8.8227 C.ar    1  UNL1        0.0183
     21 C          11.4087   37.3148    9.3668 C.ar    1  UNL1        0.0013
     22 C          12.4153   37.8042   10.2029 C.ar    1  UNL1        0.0001
     23 C          13.3626   36.9341   10.7497 C.ar    1  UNL1        0.0000
     24 C          14.3695   37.4325   11.5828 C.ar    1  UNL1        0.0000
     25 C          14.4322   38.8001   11.8704 C.ar    1  UNL1        0.0000
     26 C          13.4873   39.6769   11.3277 C.ar    1  UNL1        0.0000
     27 C          12.4776   39.1865   10.4951 C.ar    1  UNL1        0.0013
     28 C          11.5313   40.0563    9.9477 C.ar    1  UNL1        0.0183
@<TRIPOS>BOND
     1    13    14    1
     2    14    12    1
     3    11    12    1
     4    11     9    1
     5     7     4    1
     6     7     8   ar
     7     1     2    1
     8     1    15    1
     9    15    18    1
    10    20    21   ar
    11    22    23   ar
    12    24    25   ar
    13    26    27   ar
    14    27    22   ar
    15    28    19   ar
    16     9     6   ar
    17     9    10   ar
    18     4     2   am
    19    18    19    1
    20     6     7   ar
    21     2     3    2
    22    19    20   ar
    23    21    22   ar
    24    23    24   ar
    25    25    26   ar
    26    27    28   ar
    27     8    10   ar
    28    18    16    2
    29    18    17    2
    30     4     5    1
@<TRIPOS>MOLECULE
MolPort-001-659-628 2730708 CSSS00132994376 MCULE-4414717107 PubChem-19585148 ZINC000002730708 ZINC02730708
 28 30 0 0 0
SMALL
GASTEIGER

@<TRIPOS>ATOM
      1 C          10.3934   40.7182    7.7285 C.3     1  UNL1        0.1111
      2 C          11.4921   41.7208    7.6333 C.2     1  UNL1        0.2280
      3 O          11.7142   42.4946    8.6027 O.2     1  UNL1       -0.2747
      4 N          12.2872   41.7785    6.4443 N.am    1  UNL1       -0.2814
      5 H          12.0524   41.1626    5.7130 H       1  UNL1        0.1549
      6 C          14.6109   42.5621    6.8703 C.ar    1  UNL1        0.1140
      7 C          13.3957   42.6585    6.2319 C.ar    1  UNL1        0.0906
      8 C          13.4540   43.7398    5.3718 C.ar    1  UNL1        0.1364
      9 N          15.3566   43.5725    6.3890 N.ar    1  UNL1       -0.2187
     10 N          14.6830   44.2783    5.4952 N.ar    1  UNL1       -0.1641
     11 C          16.7302   43.8582    6.7663 C.3     1  UNL1        0.2733
     12 O          16.7680   44.3774    8.0614 O.3     1  UNL1       -0.3311
     13 C          17.8603   42.2677    8.0554 C.3     1  UNL1        0.0347
     14 C          17.7498   43.6299    8.7099 C.3     1  UNL1        0.1446
     15 C          10.3289   39.8562    6.4760 C.3     1  UNL1        0.1655
     16 O           8.1216   38.3027    6.3578 O.2     1  UNL1       -0.1686
     17 O           8.5944   39.7153    4.4167 O.2     1  UNL1       -0.1686
     18 S           8.6472   39.6404    5.9176 S.O2    1  UNL1        0.0092
     19 C           7.6495   40.9092    6.6036 C.ar    1  UNL1        0.1057
     20 C           7.8095   42.2326    6.1745 C.ar    1  UNL1        0.0183
     21 C           7.0125   43.2492    6.7093 C.ar    1  UNL1        0.0013
     22 C           6.0494   42.9452    7.6747 C.ar    1  UNL1        0.0001
     23 C           5.2478   43.9555    8.2132 C.ar    1  UNL1        0.0000
     24 C           4.2833   43.6424    9.1765 C.ar    1  UNL1        0.0000
     25 C           4.1176   42.3204    9.6028 C.ar    1  UNL1        0.0000
     26 C           4.9165   41.3040    9.0692 C.ar    1  UNL1        0.0000
     27 C           5.8832   41.6090    8.1069 C.ar    1  UNL1        0.0013
     28 C           6.6838   40.5990    7.5678 C.ar    1  UNL1        0.0183
@<TRIPOS>BOND
     1    13    14    1
     2    14    12    1
     3    11    12    1
     4    11     9    1
     5     7     4    1
     6     7     8   ar
     7     1     2    1
     8     1    15    1
     9    15    18    1
    10    20    21   ar
    11    22    23   ar
    12    24    25   ar
    13    26    27   ar
    14    27    22   ar
    15    28    19   ar
    16     9     6   ar
    17     9    10   ar
    18     4     2   am
    19    18    19    1
    20     6     7   ar
    21     2     3    2
    22    19    20   ar
    23    21    22   ar
    24    23    24   ar
    25    25    26   ar
    26    27    28   ar
    27     8    10   ar
    28    18    16    2
    29    18    17    2
    30     4     5    1
@<TRIPOS>MOLECULE
MolPort-001-659-628 2730708 CSSS00132994376 MCULE-4414717107 PubChem-19585148 ZINC000002730708 ZINC02730708
 28 30 0 0 0
SMALL
GASTEIGER

@<TRIPOS>ATOM
      1 C           9.3764   40.5597    5.8537 C.3     1  UNL1        0.1111
      2 C           8.2486   41.4627    6.2197 C.2     1  UNL1        0.2280
      3 O           7.1241   41.3072    5.6729 O.2     1  UNL1       -0.2747
      4 N           8.4592   42.4854    7.1991 N.am    1  UNL1       -0.2814
      5 H           9.3648   42.5712    7.5757 H       1  UNL1        0.1549
      6 C           6.1859   43.4982    7.1681 C.ar    1  UNL1        0.1140
      7 C           7.4606   43.3933    7.6754 C.ar    1  UNL1        0.0906
      8 C           7.5837   44.3095    8.7038 C.ar    1  UNL1        0.1364
      9 N           5.5846   44.4609    7.8895 N.ar    1  UNL1       -0.2187
     10 N           6.4024   44.9492    8.8079 N.ar    1  UNL1       -0.1641
     11 C           4.2125   44.9071    7.7189 C.3     1  UNL1        0.2733
     12 O           3.4143   44.3859    8.7385 O.3     1  UNL1       -0.3311
     13 C           3.2328   42.5090   10.1835 C.3     1  UNL1        0.0347
     14 C           4.0091   43.1672    9.0608 C.3     1  UNL1        0.1446
     15 C          10.6803   41.3346    5.7298 C.3     1  UNL1        0.1655
     16 O          12.1116   39.5591    7.1784 O.2     1  UNL1       -0.1686
     17 O          11.0781   41.4134    8.3953 O.2     1  UNL1       -0.1686
     18 S          11.7614   41.0196    7.1149 S.O2    1  UNL1        0.0092
     19 C          13.2291   41.9594    6.9203 C.ar    1  UNL1        0.1057
     20 C          13.2754   42.9959    5.9797 C.ar    1  UNL1        0.0183
     21 C          14.4383   43.7562    5.8239 C.ar    1  UNL1        0.0013
     22 C          15.5599   43.4842    6.6111 C.ar    1  UNL1        0.0001
     23 C          16.7257   44.2405    6.4625 C.ar    1  UNL1        0.0000
     24 C          17.8431   43.9644    7.2572 C.ar    1  UNL1        0.0000
     25 C          17.7977   42.9333    8.2015 C.ar    1  UNL1        0.0000
     26 C          16.6349   42.1715    8.3555 C.ar    1  UNL1        0.0000
     27 C          15.5145   42.4406    7.5645 C.ar    1  UNL1        0.0013
     28 C          14.3488   41.6853    7.7138 C.ar    1  UNL1        0.0183
@<TRIPOS>BOND
     1    13    14    1
     2    14    12    1
     3    11    12    1
     4    11     9    1
     5     7     4    1
     6     7     8   ar
     7     1     2    1
     8     1    15    1
     9    15    18    1
    10    20    21   ar
    11    22    23   ar
    12    24    25   ar
    13    26    27   ar
    14    27    22   ar
    15    28    19   ar
    16     9     6   ar
    17     9    10   ar
    18     4     2   am
    19    18    19    1
    20     6     7   ar
    21     2     3    2
    22    19    20   ar
    23    21    22   ar
    24    23    24   ar
    25    25    26   ar
    26    27    28   ar
    27     8    10   ar
    28    18    16    2
    29    18    17    2
    30     4     5    1
@<TRIPOS>MOLECULE
MolPort-001-659-628 2730708 CSSS00132994376 MCULE-4414717107 PubChem-19585148 ZINC000002730708 ZINC02730708
 28 30 0 0 0
SMALL
GASTEIGER

@<TRIPOS>ATOM
      1 C          11.0189   39.6045    8.9395 C.3     1  UNL1        0.1111
      2 C          12.1564   40.3185    8.2932 C.2     1  UNL1        0.2280
      3 O          13.3002   39.7899    8.2871 O.2     1  UNL1       -0.2747
      4 N          11.9263   41.5898    7.6766 N.am    1  UNL1       -0.2814
      5 H          11.0162   41.9611    7.7319 H       1  UNL1        0.1549
      6 C          13.9797   42.9934    7.5844 C.ar    1  UNL1        0.1140
      7 C          12.9116   42.3651    6.9864 C.ar    1  UNL1        0.0906
      8 C          12.9748   42.6225    5.6291 C.ar    1  UNL1        0.1364
      9 N          14.6462   43.6056    6.5897 N.ar    1  UNL1       -0.2187
     10 N          14.0622   43.3907    5.4219 N.ar    1  UNL1       -0.1641
     11 C          15.8620   44.3852    6.7467 C.3     1  UNL1        0.2733
     12 O          16.5702   44.4066    5.5440 O.3     1  UNL1       -0.3311
     13 C          18.0134   43.8334    7.3419 C.3     1  UNL1        0.0347
     14 C          17.7880   43.7984    5.8438 C.3     1  UNL1        0.1446
     15 C           9.6990   40.3063    8.6544 C.3     1  UNL1        0.1655
     16 O          10.2462   42.6597    9.8634 O.2     1  UNL1       -0.1686
     17 O           9.4168   40.8459   11.2809 O.2     1  UNL1       -0.1686
     18 S           9.3015   41.4922    9.9281 S.O2    1  UNL1        0.0092
     19 C           7.6601   42.0611    9.6878 C.ar    1  UNL1        0.1057
     20 C           6.6039   41.4618   10.3853 C.ar    1  UNL1        0.0183
     21 C           5.2933   41.9146   10.2068 C.ar    1  UNL1        0.0013
     22 C           5.0339   42.9716    9.3309 C.ar    1  UNL1        0.0001
     23 C           3.7267   43.4310    9.1479 C.ar    1  UNL1        0.0000
     24 C           3.4759   44.4923    8.2721 C.ar    1  UNL1        0.0000
     25 C           4.5298   45.0964    7.5784 C.ar    1  UNL1        0.0000
     26 C           5.8405   44.6417    7.7556 C.ar    1  UNL1        0.0000
     27 C           6.0992   43.5811    8.6283 C.ar    1  UNL1        0.0013
     28 C           7.4060   43.1226    8.8119 C.ar    1  UNL1        0.0183
@<TRIPOS>BOND
     1    13    14    1
     2    14    12    1
     3    11    12    1
     4    11     9    1
     5     7     4    1
     6     7     8   ar
     7     1     2    1
     8     1    15    1
     9    15    18    1
    10    20    21   ar
    11    22    23   ar
    12    24    25   ar
    13    26    27   ar
    14    27    22   ar
    15    28    19   ar
    16     9     6   ar
    17     9    10   ar
    18     4     2   am
    19    18    19    1
    20     6     7   ar
    21     2     3    2
    22    19    20   ar
    23    21    22   ar
    24    23    24   ar
    25    25    26   ar
    26    27    28   ar
    27     8    10   ar
    28    18    16    2
    29    18    17    2
    30     4     5    1
@<TRIPOS>MOLECULE
MolPort-001-659-628 2730708 CSSS00132994376 MCULE-4414717107 PubChem-19585148 ZINC000002730708 ZINC02730708
 28 30 0 0 0
SMALL
GASTEIGER

@<TRIPOS>ATOM
      1 C          10.0781   39.4044    8.0926 C.3     1  UNL1        0.1111
      2 C          11.3368   39.0259    8.7952 C.2     1  UNL1        0.2280
      3 O          12.2951   39.8430    8.8387 O.2     1  UNL1       -0.2747
      4 N          11.4308   37.7424    9.4221 N.am    1  UNL1       -0.2814
      5 H          10.6572   37.1395    9.3363 H       1  UNL1        0.1549
      6 C          13.6369   38.0312   10.5376 C.ar    1  UNL1        0.1140
      7 C          12.5576   37.2640   10.1635 C.ar    1  UNL1        0.0906
      8 C          12.7694   35.9795   10.6297 C.ar    1  UNL1        0.1364
      9 N          14.4591   37.2026   11.2055 N.ar    1  UNL1       -0.2187
     10 N          13.9544   35.9812   11.2710 N.ar    1  UNL1       -0.1641
     11 C          15.7271   37.5794   11.8062 C.3     1  UNL1        0.2733
     12 O          16.7810   37.0416   11.0656 O.3     1  UNL1       -0.3311
     13 C          16.9901   39.4079   11.0392 C.3     1  UNL1        0.0347
     14 C          17.7108   38.0763   10.9771 C.3     1  UNL1        0.1446
     15 C          10.3675   39.9197    6.6902 C.3     1  UNL1        0.1655
     16 O           9.7656   42.2979    7.8221 O.2     1  UNL1       -0.1686
     17 O           9.9488   42.2401    5.3828 O.2     1  UNL1       -0.1686
     18 S          10.5160   41.6984    6.6658 S.O2    1  UNL1        0.0092
     19 C          12.2108   42.1326    6.7872 C.ar    1  UNL1        0.1057
     20 C          13.0902   41.3192    7.5125 C.ar    1  UNL1        0.0183
     21 C          14.4446   41.6527    7.6072 C.ar    1  UNL1        0.0013
     22 C          14.9258   42.8013    6.9739 C.ar    1  UNL1        0.0001
     23 C          16.2786   43.1409    7.0626 C.ar    1  UNL1        0.0000
     24 C          16.7532   44.2904    6.4225 C.ar    1  UNL1        0.0000
     25 C          15.8780   45.1017    5.6926 C.ar    1  UNL1        0.0000
     26 C          14.5227   44.7688    5.5999 C.ar    1  UNL1        0.0000
     27 C          14.0406   43.6224    6.2375 C.ar    1  UNL1        0.0013
     28 C          12.6886   43.2823    6.1479 C.ar    1  UNL1        0.0183
@<TRIPOS>BOND
     1    13    14    1
     2    14    12    1
     3    11    12    1
     4    11     9    1
     5     7     4    1
     6     7     8   ar
     7     1     2    1
     8     1    15    1
     9    15    18    1
    10    20    21   ar
    11    22    23   ar
    12    24    25   ar
    13    26    27   ar
    14    27    22   ar
    15    28    19   ar
    16     9     6   ar
    17     9    10   ar
    18     4     2   am
    19    18    19    1
    20     6     7   ar
    21     2     3    2
    22    19    20   ar
    23    21    22   ar
    24    23    24   ar
    25    25    26   ar
    26    27    28   ar
    27     8    10   ar
    28    18    16    2
    29    18    17    2
    30     4     5    1
@<TRIPOS>MOLECULE
MolPort-001-659-628 2730708 CSSS00132994376 MCULE-4414717107 PubChem-19585148 ZINC000002730708 ZINC02730708
 28 30 0 0 0
SMALL
GASTEIGER

@<TRIPOS>ATOM
      1 C          16.4946   38.6920   10.5334 C.3     1  UNL1        0.1111
      2 C          17.1248   39.8196    9.7900 C.2     1  UNL1        0.2280
      3 O          18.3507   39.7679    9.5030 O.2     1  UNL1       -0.2747
      4 N          16.3213   40.9389    9.4016 N.am    1  UNL1       -0.2814
      5 H          15.3749   40.9318    9.6725 H       1  UNL1        0.1549
      6 C          16.4915   42.3044    7.3276 C.ar    1  UNL1        0.1140
      7 C          16.7818   42.0675    8.6516 C.ar    1  UNL1        0.0906
      8 C          17.5816   43.1021    9.1012 C.ar    1  UNL1        0.1364
      9 N          17.1160   43.4544    7.0176 N.ar    1  UNL1       -0.2187
     10 N          17.7646   43.9413    8.0630 N.ar    1  UNL1       -0.1641
     11 C          17.0790   44.1088    5.7210 C.3     1  UNL1        0.2733
     12 O          16.4210   45.3352    5.8275 O.3     1  UNL1       -0.3311
     13 C          14.7043   44.0676    4.7835 C.3     1  UNL1        0.0347
     14 C          15.0707   45.0015    5.9192 C.3     1  UNL1        0.1446
     15 C          15.4172   38.0183    9.6960 C.3     1  UNL1        0.1655
     16 O          13.8499   39.0068   11.6622 O.2     1  UNL1       -0.1686
     17 O          13.5873   36.6365   11.1143 O.2     1  UNL1       -0.1686
     18 S          13.8459   38.0033   10.5430 S.O2    1  UNL1        0.0092
     19 C          12.5776   38.4119    9.4029 C.ar    1  UNL1        0.1057
     20 C          11.3270   37.7887    9.4961 C.ar    1  UNL1        0.0183
     21 C          10.3071   38.1147    8.5970 C.ar    1  UNL1        0.0013
     22 C          10.5336   39.0685    7.6016 C.ar    1  UNL1        0.0001
     23 C           9.5189   39.4010    6.6999 C.ar    1  UNL1        0.0000
     24 C           9.7524   40.3597    5.7086 C.ar    1  UNL1        0.0000
     25 C          10.9989   40.9879    5.6168 C.ar    1  UNL1        0.0000
     26 C          12.0196   40.6599    6.5150 C.ar    1  UNL1        0.0000
     27 C          11.7944   39.7022    7.5077 C.ar    1  UNL1        0.0013
     28 C          12.8083   39.3706    8.4097 C.ar    1  UNL1        0.0183
@<TRIPOS>BOND
     1    13    14    1
     2    14    12    1
     3    11    12    1
     4    11     9    1
     5     7     4    1
     6     7     8   ar
     7     1     2    1
     8     1    15    1
     9    15    18    1
    10    20    21   ar
    11    22    23   ar
    12    24    25   ar
    13    26    27   ar
    14    27    22   ar
    15    28    19   ar
    16     9     6   ar
    17     9    10   ar
    18     4     2   am
    19    18    19    1
    20     6     7   ar
    21     2     3    2
    22    19    20   ar
    23    21    22   ar
    24    23    24   ar
    25    25    26   ar
    26    27    28   ar
    27     8    10   ar
    28    18    16    2
    29    18    17    2
    30     4     5    1
@<TRIPOS>MOLECULE
MolPort-001-659-628 2730708 CSSS00132994376 MCULE-4414717107 PubChem-19585148 ZINC000002730708 ZINC02730708
 28 30 0 0 0
SMALL
GASTEIGER

@<TRIPOS>ATOM
      1 C           9.4082   39.1531    5.4824 C.3     1  UNL1        0.1111
      2 C          10.6952   39.9046    5.4616 C.2     1  UNL1        0.2280
      3 O          11.2558   40.1485    4.3598 O.2     1  UNL1       -0.2747
      4 N          11.2670   40.3494    6.6963 N.am    1  UNL1       -0.2814
      5 H          10.7936   40.1105    7.5258 H       1  UNL1        0.1549
      6 C          12.7743   42.2328    6.0832 C.ar    1  UNL1        0.1140
      7 C          12.4707   41.1131    6.8232 C.ar    1  UNL1        0.0906
      8 C          13.5249   40.8777    7.6866 C.ar    1  UNL1        0.1364
      9 N          13.9846   42.6347    6.5100 N.ar    1  UNL1       -0.2187
     10 N          14.4409   41.8408    7.4651 N.ar    1  UNL1       -0.1641
     11 C          14.7060   43.7970    6.0207 C.3     1  UNL1        0.2733
     12 O          15.5735   44.2669    7.0082 O.3     1  UNL1       -0.3311
     13 C          17.8960   43.7689    7.0484 C.3     1  UNL1        0.0347
     14 C          16.7738   44.4989    6.3385 C.3     1  UNL1        0.1446
     15 C           8.6264   39.4415    6.7558 C.3     1  UNL1        0.1655
     16 O           6.8426   41.0183    5.4786 O.2     1  UNL1       -0.1686
     17 O           8.7710   42.1219    6.5035 O.2     1  UNL1       -0.1686
     18 S           7.7740   41.0069    6.6584 S.O2    1  UNL1        0.0092
     19 C           6.8493   41.2471    8.1290 C.ar    1  UNL1        0.1057
     20 C           7.5121   41.4540    9.3451 C.ar    1  UNL1        0.0183
     21 C           6.7831   41.6553   10.5210 C.ar    1  UNL1        0.0013
     22 C           5.3865   41.6529   10.4845 C.ar    1  UNL1        0.0001
     23 C           4.6504   41.8548   11.6553 C.ar    1  UNL1        0.0000
     24 C           3.2525   41.8548   11.6098 C.ar    1  UNL1        0.0000
     25 C           2.5879   41.6541   10.3954 C.ar    1  UNL1        0.0000
     26 C           3.3175   41.4506    9.2196 C.ar    1  UNL1        0.0000
     27 C           4.7146   41.4482    9.2571 C.ar    1  UNL1        0.0013
     28 C           5.4504   41.2475    8.0866 C.ar    1  UNL1        0.0183
@<TRIPOS>BOND
     1    13    14    1
     2    14    12    1
     3    11    12    1
     4    11     9    1
     5     7     4    1
     6     7     8   ar
     7     1     2    1
     8     1    15    1
     9    15    18    1
    10    20    21   ar
    11    22    23   ar
    12    24    25   ar
    13    26    27   ar
    14    27    22   ar
    15    28    19   ar
    16     9     6   ar
    17     9    10   ar
    18     4     2   am
    19    18    19    1
    20     6     7   ar
    21     2     3    2
    22    19    20   ar
    23    21    22   ar
    24    23    24   ar
    25    25    26   ar
    26    27    28   ar
    27     8    10   ar
    28    18    16    2
    29    18    17    2
    30     4     5    1
@<TRIPOS>MOLECULE
MolPort-001-659-628 2730708 CSSS00132994376 MCULE-4414717107 PubChem-19585148 ZINC000002730708 ZINC02730708
 28 30 0 0 0
SMALL
GASTEIGER

@<TRIPOS>ATOM
      1 C          12.2396   40.0285   10.6098 C.3     1  UNL1        0.1111
      2 C          11.2686   40.9770    9.9943 C.2     1  UNL1        0.2280
      3 O          11.6641   42.1095    9.6085 O.2     1  UNL1       -0.2747
      4 N           9.9023   40.5788    9.8390 N.am    1  UNL1       -0.2814
      5 H           9.6490   39.6901   10.1785 H       1  UNL1        0.1549
      6 C           8.6933   42.7161    9.4330 C.ar    1  UNL1        0.1140
      7 C           8.8747   41.3673    9.2304 C.ar    1  UNL1        0.0906
      8 C           7.8986   40.9364    8.3506 C.ar    1  UNL1        0.1364
      9 N           7.6287   43.0571    8.6854 N.ar    1  UNL1       -0.2187
     10 N           7.1487   42.0101    8.0341 N.ar    1  UNL1       -0.1641
     11 C           7.0743   44.3952    8.5718 C.3     1  UNL1        0.2733
     12 O           5.7067   44.3671    8.8501 O.3     1  UNL1       -0.3311
     13 C           3.6009   44.8752    7.8748 C.3     1  UNL1        0.0347
     14 C           5.1002   44.7946    7.6701 C.3     1  UNL1        0.1446
     15 C          12.9191   39.1751    9.5486 C.3     1  UNL1        0.1655
     16 O          15.3354   38.0921    9.0120 O.2     1  UNL1       -0.1686
     17 O          15.1165   39.3467   11.1013 O.2     1  UNL1       -0.1686
     18 S          14.6971   39.2898    9.6583 S.O2    1  UNL1        0.0092
     19 C          15.2284   40.7443    8.8353 C.ar    1  UNL1        0.1057
     20 C          16.5012   41.2680    9.0938 C.ar    1  UNL1        0.0183
     21 C          16.9366   42.4221    8.4356 C.ar    1  UNL1        0.0013
     22 C          16.1005   43.0563    7.5134 C.ar    1  UNL1        0.0001
     23 C          16.5289   44.2096    6.8503 C.ar    1  UNL1        0.0000
     24 C          15.6873   44.8364    5.9255 C.ar    1  UNL1        0.0000
     25 C          14.4176   44.3122    5.6612 C.ar    1  UNL1        0.0000
     26 C          13.9815   43.1589    6.3214 C.ar    1  UNL1        0.0000
     27 C          14.8162   42.5273    7.2476 C.ar    1  UNL1        0.0013
     28 C          14.3885   41.3739    7.9096 C.ar    1  UNL1        0.0183
@<TRIPOS>BOND
     1    13    14    1
     2    14    12    1
     3    11    12    1
     4    11     9    1
     5     7     4    1
     6     7     8   ar
     7     1     2    1
     8     1    15    1
     9    15    18    1
    10    20    21   ar
    11    22    23   ar
    12    24    25   ar
    13    26    27   ar
    14    27    22   ar
    15    28    19   ar
    16     9     6   ar
    17     9    10   ar
    18     4     2   am
    19    18    19    1
    20     6     7   ar
    21     2     3    2
    22    19    20   ar
    23    21    22   ar
    24    23    24   ar
    25    25    26   ar
    26    27    28   ar
    27     8    10   ar
    28    18    16    2
    29    18    17    2
    30     4     5    1
