@<TRIPOS>MOLECULE
MolPort-018-616-241 96190568 CSSS02267491935 MCULE-5501081623 PubChem-12828310
 18 18 0 0 0
SMALL
GASTEIGER

@<TRIPOS>ATOM
      1 C          12.3691   40.8498    7.7761 C.ar    1  UNL1        0.1126
      2 C          13.6963   40.9139    8.2206 C.ar    1  UNL1        0.1018
      3 C          14.4600   41.8675    7.5126 C.ar    1  UNL1        0.0638
      4 C          13.7584   42.5677    6.5313 C.ar    1  UNL1        0.0505
      5 S          12.1864   41.9792    6.5472 S.2     1  UNL1       -0.0785
      6 C          16.5317   43.3640    7.6643 C.2     1  UNL1        0.2266
      7 C          17.9657   43.4508    8.0431 C.3     1  UNL1        0.0949
      8 O          15.9496   44.3843    7.2107 O.2     1  UNL1       -0.2748
      9 N          15.8397   42.1197    7.8199 N.am    1  UNL1       -0.2833
     10 H          16.3614   41.3628    8.1724 H       1  UNL1        0.1549
     11 C          11.3039   39.9171    8.1870 C.2     1  UNL1        0.3477
     12 O          11.0361   38.9247    7.4555 O.2     1  UNL1       -0.2443
     13 C          10.4115   41.3850    9.9503 C.3     1  UNL1        0.2560
     14 O          10.6317   40.0964    9.3969 O.3     1  UNL1       -0.4410
     15 C          14.2490   40.1356    9.3491 C.2     1  UNL1        0.3433
     16 O          13.7722   40.2747   10.5084 O.2     1  UNL1       -0.2448
     17 C          15.2037   37.8688    9.2377 C.3     1  UNL1        0.2560
     18 O          15.3306   39.2788    9.1347 O.3     1  UNL1       -0.4413
@<TRIPOS>BOND
     1    13    14    1
     2    11    14    1
     3    11     1    1
     4     1     5   ar
     5     2    15    1
     6     2     3   ar
     7    15    18    1
     8    17    18    1
     9     3     9    1
    10     7     6    1
    11     4     5   ar
    12     9     6   am
    13    11    12    2
    14     1     2   ar
    15    15    16    2
    16     3     4   ar
    17     6     8    2
    18     9    10    1
@<TRIPOS>MOLECULE
MolPort-018-616-241 96190568 CSSS02267491935 MCULE-5501081623 PubChem-12828310
 18 18 0 0 0
SMALL
GASTEIGER

@<TRIPOS>ATOM
      1 C          15.7825   41.9992    8.2450 C.ar    1  UNL1        0.1126
      2 C          14.8699   41.0030    8.6163 C.ar    1  UNL1        0.1018
      3 C          15.4528   40.0115    9.4356 C.ar    1  UNL1        0.0638
      4 C          16.8006   40.2145    9.7314 C.ar    1  UNL1        0.0505
      5 S          17.2591   41.6299    8.9540 S.2     1  UNL1       -0.0785
      6 C          14.8362   38.3141   11.2503 C.2     1  UNL1        0.2266
      7 C          13.9557   37.1792   11.6300 C.3     1  UNL1        0.0949
      8 O          15.6940   38.7323   12.0719 O.2     1  UNL1       -0.2748
      9 N          14.6938   38.9089    9.9552 N.am    1  UNL1       -0.2833
     10 H          14.0081   38.5239    9.3629 H       1  UNL1        0.1549
     11 C          15.5857   43.1310    7.3211 C.2     1  UNL1        0.3477
     12 O          16.1500   44.2326    7.5650 O.2     1  UNL1       -0.2443
     13 C          14.8027   43.9624    5.1402 C.3     1  UNL1        0.2560
     14 O          14.8268   42.9753    6.1602 O.3     1  UNL1       -0.4410
     15 C          13.4340   40.9980    8.2657 C.2     1  UNL1        0.3433
     16 O          12.7006   41.9733    8.5844 O.2     1  UNL1       -0.2448
     17 C          11.5011   39.8126    7.3060 C.3     1  UNL1        0.2560
     18 O          12.8833   39.8891    7.6197 O.3     1  UNL1       -0.4413
@<TRIPOS>BOND
     1    13    14    1
     2    11    14    1
     3    11     1    1
     4     1     5   ar
     5     2    15    1
     6     2     3   ar
     7    15    18    1
     8    17    18    1
     9     3     9    1
    10     7     6    1
    11     4     5   ar
    12     9     6   am
    13    11    12    2
    14     1     2   ar
    15    15    16    2
    16     3     4   ar
    17     6     8    2
    18     9    10    1
@<TRIPOS>MOLECULE
MolPort-018-616-241 96190568 CSSS02267491935 MCULE-5501081623 PubChem-12828310
 18 18 0 0 0
SMALL
GASTEIGER

@<TRIPOS>ATOM
      1 C          15.3596   41.7149    8.0424 C.ar    1  UNL1        0.1126
      2 C          14.5509   40.8198    8.7551 C.ar    1  UNL1        0.1018
      3 C          13.1831   40.9459    8.4277 C.ar    1  UNL1        0.0638
      4 C          12.8991   41.9096    7.4601 C.ar    1  UNL1        0.0505
      5 S          14.3632   42.6081    7.0283 S.2     1  UNL1       -0.0785
      6 C          12.0342   38.6952    8.8388 C.2     1  UNL1        0.2266
      7 C          10.9353   37.9807    9.5384 C.3     1  UNL1        0.0949
      8 O          12.8194   38.0471    8.0979 O.2     1  UNL1       -0.2748
      9 N          12.1773   40.1090    9.0189 N.am    1  UNL1       -0.2833
     10 H          11.5215   40.5502    9.6059 H       1  UNL1        0.1549
     11 C          16.8068   41.9597    8.1809 C.2     1  UNL1        0.3477
     12 O          17.4683   41.2917    9.0222 O.2     1  UNL1       -0.2443
     13 C          17.5467   44.2573    7.6969 C.3     1  UNL1        0.2560
     14 O          17.4523   42.8823    7.3564 O.3     1  UNL1       -0.4410
     15 C          15.0489   39.7967    9.6985 C.2     1  UNL1        0.3433
     16 O          15.8521   38.9081    9.3035 O.2     1  UNL1       -0.2448
     17 C          14.2284   38.5905   11.6820 C.3     1  UNL1        0.2560
     18 O          14.5918   39.7913   11.0180 O.3     1  UNL1       -0.4413
@<TRIPOS>BOND
     1    13    14    1
     2    11    14    1
     3    11     1    1
     4     1     5   ar
     5     2    15    1
     6     2     3   ar
     7    15    18    1
     8    17    18    1
     9     3     9    1
    10     7     6    1
    11     4     5   ar
    12     9     6   am
    13    11    12    2
    14     1     2   ar
    15    15    16    2
    16     3     4   ar
    17     6     8    2
    18     9    10    1
@<TRIPOS>MOLECULE
MolPort-018-616-241 96190568 CSSS02267491935 MCULE-5501081623 PubChem-12828310
 18 18 0 0 0
SMALL
GASTEIGER

@<TRIPOS>ATOM
      1 C          14.8763   39.9873    9.6469 C.ar    1  UNL1        0.1126
      2 C          14.5055   40.9184    8.6678 C.ar    1  UNL1        0.1018
      3 C          15.5922   41.7062    8.2292 C.ar    1  UNL1        0.0638
      4 C          16.8143   41.4041    8.8297 C.ar    1  UNL1        0.0505
      5 S          16.5245   40.1587    9.9173 S.2     1  UNL1       -0.0785
      6 C          16.0728   43.9945    7.1863 C.2     1  UNL1        0.2266
      7 C          15.8169   44.9069    6.0420 C.3     1  UNL1        0.0949
      8 O          16.8339   44.3690    8.1169 O.2     1  UNL1       -0.2748
      9 N          15.4461   42.7067    7.2097 N.am    1  UNL1       -0.2833
     10 H          14.8573   42.4859    6.4523 H       1  UNL1        0.1549
     11 C          14.0176   39.0705   10.4186 C.2     1  UNL1        0.3477
     12 O          13.5655   39.4418   11.5363 O.2     1  UNL1       -0.2443
     13 C          12.3220   37.3591    9.9121 C.3     1  UNL1        0.2560
     14 O          13.6630   37.8246    9.8991 O.3     1  UNL1       -0.4410
     15 C          13.1523   41.0405    8.0858 C.2     1  UNL1        0.3433
     16 O          12.5076   42.1183    8.2018 O.2     1  UNL1       -0.2448
     17 C          11.3587   40.0527    6.7185 C.3     1  UNL1        0.2560
     18 O          12.5727   39.9431    7.4456 O.3     1  UNL1       -0.4413
@<TRIPOS>BOND
     1    13    14    1
     2    11    14    1
     3    11     1    1
     4     1     5   ar
     5     2    15    1
     6     2     3   ar
     7    15    18    1
     8    17    18    1
     9     3     9    1
    10     7     6    1
    11     4     5   ar
    12     9     6   am
    13    11    12    2
    14     1     2   ar
    15    15    16    2
    16     3     4   ar
    17     6     8    2
    18     9    10    1
@<TRIPOS>MOLECULE
MolPort-018-616-241 96190568 CSSS02267491935 MCULE-5501081623 PubChem-12828310
 18 18 0 0 0
SMALL
GASTEIGER

@<TRIPOS>ATOM
      1 C           8.9453   42.0746    7.9075 C.ar    1  UNL1        0.1126
      2 C          10.2918   42.0595    8.2944 C.ar    1  UNL1        0.1018
      3 C          11.1582   41.7266    7.2303 C.ar    1  UNL1        0.0638
      4 C          10.5243   41.4957    6.0095 C.ar    1  UNL1        0.0505
      5 S           8.8788   41.6977    6.2727 S.2     1  UNL1       -0.0785
      6 C          13.5277   42.6459    6.9218 C.2     1  UNL1        0.2266
      7 C          14.9747   42.4420    7.1901 C.3     1  UNL1        0.0949
      8 O          13.1556   43.6644    6.2816 O.2     1  UNL1       -0.2748
      9 N          12.5838   41.6779    7.3946 N.am    1  UNL1       -0.2833
     10 H          12.9484   40.9028    7.8800 H       1  UNL1        0.1549
     11 C           7.7481   42.2697    8.7454 C.2     1  UNL1        0.3477
     12 O           7.2037   41.2687    9.2870 O.2     1  UNL1       -0.2443
     13 C           6.3860   44.2036    8.0634 C.3     1  UNL1        0.2560
     14 O           7.2492   43.5514    8.9825 O.3     1  UNL1       -0.4410
     15 C          10.7895   42.4165    9.6396 C.2     1  UNL1        0.3433
     16 O          11.1594   43.5969    9.8856 O.2     1  UNL1       -0.2448
     17 C           9.9905   41.3694   11.7199 C.3     1  UNL1        0.2560
     18 O          10.8906   41.4312   10.6241 O.3     1  UNL1       -0.4413
@<TRIPOS>BOND
     1    13    14    1
     2    11    14    1
     3    11     1    1
     4     1     5   ar
     5     2    15    1
     6     2     3   ar
     7    15    18    1
     8    17    18    1
     9     3     9    1
    10     7     6    1
    11     4     5   ar
    12     9     6   am
    13    11    12    2
    14     1     2   ar
    15    15    16    2
    16     3     4   ar
    17     6     8    2
    18     9    10    1
@<TRIPOS>MOLECULE
MolPort-018-616-241 96190568 CSSS02267491935 MCULE-5501081623 PubChem-12828310
 18 18 0 0 0
SMALL
GASTEIGER

@<TRIPOS>ATOM
      1 C          13.7973   40.2587    9.6572 C.ar    1  UNL1        0.1126
      2 C          12.7469   40.9162    9.0033 C.ar    1  UNL1        0.1018
      3 C          11.5581   40.9307    9.7652 C.ar    1  UNL1        0.0638
      4 C          11.6544   40.3133   11.0123 C.ar    1  UNL1        0.0505
      5 S          13.2265   39.7409   11.1490 S.2     1  UNL1       -0.0785
      6 C           9.9605   42.9220    9.5739 C.2     1  UNL1        0.2266
      7 C           8.6885   43.4324    9.0002 C.3     1  UNL1        0.0949
      8 O          10.6625   43.6809   10.2928 O.2     1  UNL1       -0.2748
      9 N          10.3622   41.5748    9.2999 N.am    1  UNL1       -0.2833
     10 H           9.7589   41.0375    8.7372 H       1  UNL1        0.1549
     11 C          15.1459   39.9460    9.1505 C.2     1  UNL1        0.3477
     12 O          15.9252   40.8901    8.8454 O.2     1  UNL1       -0.2443
     13 C          16.4102   38.0325   10.0453 C.3     1  UNL1        0.2560
     14 O          15.5795   38.6227    9.0570 O.3     1  UNL1       -0.4410
     15 C          12.8570   41.5919    7.6933 C.2     1  UNL1        0.3433
     16 O          12.3263   41.0802    6.6700 O.2     1  UNL1       -0.2448
     17 C          13.9421   43.3282    6.3258 C.3     1  UNL1        0.2560
     18 O          13.5888   42.7762    7.5849 O.3     1  UNL1       -0.4413
@<TRIPOS>BOND
     1    13    14    1
     2    11    14    1
     3    11     1    1
     4     1     5   ar
     5     2    15    1
     6     2     3   ar
     7    15    18    1
     8    17    18    1
     9     3     9    1
    10     7     6    1
    11     4     5   ar
    12     9     6   am
    13    11    12    2
    14     1     2   ar
    15    15    16    2
    16     3     4   ar
    17     6     8    2
    18     9    10    1
@<TRIPOS>MOLECULE
MolPort-018-616-241 96190568 CSSS02267491935 MCULE-5501081623 PubChem-12828310
 18 18 0 0 0
SMALL
GASTEIGER

@<TRIPOS>ATOM
      1 C           6.9238   41.7192   10.6769 C.ar    1  UNL1        0.1126
      2 C           7.8877   41.6303    9.6639 C.ar    1  UNL1        0.1018
      3 C           9.1945   41.4617   10.1717 C.ar    1  UNL1        0.0638
      4 C           9.2784   41.3992   11.5626 C.ar    1  UNL1        0.0505
      5 S           7.7151   41.5680   12.1501 S.2     1  UNL1       -0.0785
      6 C          11.3295   42.3172    9.0472 C.2     1  UNL1        0.2266
      7 C          12.4548   41.9968    8.1315 C.3     1  UNL1        0.0949
      8 O          11.2676   43.4591    9.5742 O.2     1  UNL1       -0.2748
      9 N          10.3348   41.3208    9.3107 N.am    1  UNL1       -0.2833
     10 H          10.4437   40.4541    8.8567 H       1  UNL1        0.1549
     11 C           5.4819   42.0006   10.5545 C.2     1  UNL1        0.3477
     12 O           5.0657   42.6761    9.5736 O.2     1  UNL1       -0.2443
     13 C           4.0564   40.1674   11.3717 C.3     1  UNL1        0.2560
     14 O           4.5769   41.4835   11.4826 O.3     1  UNL1       -0.4410
     15 C           7.5953   41.6369    8.2150 C.2     1  UNL1        0.3433
     16 O           8.0361   42.5653    7.4839 O.2     1  UNL1       -0.2448
     17 C           6.9849   40.1569    6.3443 C.3     1  UNL1        0.2560
     18 O           6.7916   40.6351    7.6667 O.3     1  UNL1       -0.4413
@<TRIPOS>BOND
     1    13    14    1
     2    11    14    1
     3    11     1    1
     4     1     5   ar
     5     2    15    1
     6     2     3   ar
     7    15    18    1
     8    17    18    1
     9     3     9    1
    10     7     6    1
    11     4     5   ar
    12     9     6   am
    13    11    12    2
    14     1     2   ar
    15    15    16    2
    16     3     4   ar
    17     6     8    2
    18     9    10    1
@<TRIPOS>MOLECULE
MolPort-018-616-241 96190568 CSSS02267491935 MCULE-5501081623 PubChem-12828310
 18 18 0 0 0
SMALL
GASTEIGER

@<TRIPOS>ATOM
      1 C          10.4528   40.8616    9.1543 C.ar    1  UNL1        0.1126
      2 C           9.4236   41.7588    9.4687 C.ar    1  UNL1        0.1018
      3 C           8.2582   41.5375    8.7027 C.ar    1  UNL1        0.0638
      4 C           8.3417   40.4745    7.8036 C.ar    1  UNL1        0.0505
      5 S           9.8810   39.8244    7.9641 S.2     1  UNL1       -0.0785
      6 C           6.5746   43.3273    7.9837 C.2     1  UNL1        0.2266
      7 C           5.3158   44.0421    8.3182 C.3     1  UNL1        0.0949
      8 O           7.1860   43.6167    6.9217 O.2     1  UNL1       -0.2748
      9 N           7.0698   42.3240    8.8781 N.am    1  UNL1       -0.2833
     10 H           6.5436   42.1574    9.6933 H       1  UNL1        0.1549
     11 C          11.8395   40.8384    9.6542 C.2     1  UNL1        0.3477
     12 O          12.7395   41.4402    9.0064 O.2     1  UNL1       -0.2443
     13 C          13.4366   39.6616   11.1119 C.3     1  UNL1        0.2560
     14 O          12.1493   40.2033   10.8577 O.3     1  UNL1       -0.4410
     15 C           9.4924   42.7876   10.5278 C.2     1  UNL1        0.3433
     16 O          10.3204   43.7347   10.4382 O.2     1  UNL1       -0.2448
     17 C           8.5653   41.4789   12.3960 C.3     1  UNL1        0.2560
     18 O           8.6676   42.6820   11.6497 O.3     1  UNL1       -0.4413
@<TRIPOS>BOND
     1    13    14    1
     2    11    14    1
     3    11     1    1
     4     1     5   ar
     5     2    15    1
     6     2     3   ar
     7    15    18    1
     8    17    18    1
     9     3     9    1
    10     7     6    1
    11     4     5   ar
    12     9     6   am
    13    11    12    2
    14     1     2   ar
    15    15    16    2
    16     3     4   ar
    17     6     8    2
    18     9    10    1
@<TRIPOS>MOLECULE
MolPort-018-616-241 96190568 CSSS02267491935 MCULE-5501081623 PubChem-12828310
 18 18 0 0 0
SMALL
GASTEIGER

@<TRIPOS>ATOM
      1 C           8.7381   41.7160    8.2632 C.ar    1  UNL1        0.1126
      2 C          10.0639   42.0473    8.5727 C.ar    1  UNL1        0.1018
      3 C          10.9253   41.9337    7.4596 C.ar    1  UNL1        0.0638
      4 C          10.3034   41.5364    6.2761 C.ar    1  UNL1        0.0505
      5 S           8.6780   41.3170    6.6333 S.2     1  UNL1       -0.0785
      6 C          13.3949   41.3215    7.7445 C.2     1  UNL1        0.2266
      7 C          14.7924   41.8234    7.7949 C.3     1  UNL1        0.0949
      8 O          13.1755   40.0893    7.8828 O.2     1  UNL1       -0.2748
      9 N          12.3234   42.2502    7.5422 N.am    1  UNL1       -0.2833
     10 H          12.5698   43.1990    7.4508 H       1  UNL1        0.1549
     11 C           7.5796   41.6098    9.1687 C.2     1  UNL1        0.3477
     12 O           6.4983   41.1266    8.7339 O.2     1  UNL1       -0.2443
     13 C           6.8006   41.5008   11.5014 C.3     1  UNL1        0.2560
     14 O           7.6882   41.9897   10.5072 O.3     1  UNL1       -0.4410
     15 C          10.5292   42.5333    9.8887 C.2     1  UNL1        0.3433
     16 O          10.8548   43.7426   10.0385 O.2     1  UNL1       -0.2448
     17 C          11.2414   40.3580   10.7960 C.3     1  UNL1        0.2560
     18 O          10.6494   41.6384   10.9539 O.3     1  UNL1       -0.4413
@<TRIPOS>BOND
     1    13    14    1
     2    11    14    1
     3    11     1    1
     4     1     5   ar
     5     2    15    1
     6     2     3   ar
     7    15    18    1
     8    17    18    1
     9     3     9    1
    10     7     6    1
    11     4     5   ar
    12     9     6   am
    13    11    12    2
    14     1     2   ar
    15    15    16    2
    16     3     4   ar
    17     6     8    2
    18     9    10    1
@<TRIPOS>MOLECULE
MolPort-018-616-241 96190568 CSSS02267491935 MCULE-5501081623 PubChem-12828310
 18 18 0 0 0
SMALL
GASTEIGER

@<TRIPOS>ATOM
      1 C          10.3162   40.7253   10.2291 C.ar    1  UNL1        0.1126
      2 C           9.6181   41.1757    9.1008 C.ar    1  UNL1        0.1018
      3 C           8.4523   41.8981    9.4369 C.ar    1  UNL1        0.0638
      4 C           8.2262   42.0408   10.8058 C.ar    1  UNL1        0.0505
      5 S           9.4826   41.2497   11.5890 S.2     1  UNL1       -0.0785
      6 C           7.3084   43.8679    8.2681 C.2     1  UNL1        0.2266
      7 C           6.4053   44.2941    7.1680 C.3     1  UNL1        0.0949
      8 O           7.8014   44.7370    9.0344 O.2     1  UNL1       -0.2748
      9 N           7.5985   42.4755    8.4372 N.am    1  UNL1       -0.2833
     10 H           7.1704   41.8531    7.8059 H       1  UNL1        0.1549
     11 C          11.5064   39.8577   10.2905 C.2     1  UNL1        0.3477
     12 O          11.5019   38.7585    9.6712 O.2     1  UNL1       -0.2443
     13 C          13.6486   39.3469   11.3908 C.3     1  UNL1        0.2560
     14 O          12.6477   40.2668   10.9816 O.3     1  UNL1       -0.4410
     15 C          10.0623   40.9936    7.7029 C.2     1  UNL1        0.3433
     16 O          10.5224   41.9710    7.0519 O.2     1  UNL1       -0.2448
     17 C           8.8261   38.8922    7.3586 C.3     1  UNL1        0.2560
     18 O           9.9287   39.7453    7.0914 O.3     1  UNL1       -0.4413
@<TRIPOS>BOND
     1    13    14    1
     2    11    14    1
     3    11     1    1
     4     1     5   ar
     5     2    15    1
     6     2     3   ar
     7    15    18    1
     8    17    18    1
     9     3     9    1
    10     7     6    1
    11     4     5   ar
    12     9     6   am
    13    11    12    2
    14     1     2   ar
    15    15    16    2
    16     3     4   ar
    17     6     8    2
    18     9    10    1
