@<TRIPOS>MOLECULE
MolPort-044-755-744 MCULE-6831971330 PubChem-12066245
 20 20 0 0 0
SMALL
GASTEIGER

@<TRIPOS>ATOM
      1 C          14.3128   43.2675    6.4081 C.ar    1  UNL1        0.1343
      2 C          14.5248   42.2394    7.3094 C.ar    1  UNL1        0.0264
      3 C          13.4069   41.4299    7.2251 C.ar    1  UNL1        0.0343
      4 C          12.5921   42.0231    6.2773 C.ar    1  UNL1        0.1142
      5 N          13.1343   43.1434    5.7728 N.ar    1  UNL1       -0.3366
      6 H          12.7534   43.7411    5.0894 H       1  UNL1        0.1673
      7 C          10.1024   41.5836    6.6147 C.2     1  UNL1        0.4062
      8 O          10.0902   42.0870    7.7714 O.2     1  UNL1       -0.2261
      9 N          11.3137   41.5357    5.8524 N.am    1  UNL1       -0.2365
     10 H          11.2634   41.1315    4.9561 H       1  UNL1        0.1596
     11 O           8.9300   41.0611    6.0522 O.3     1  UNL1       -0.4417
     12 C           8.5828   39.6741    6.0390 C.3     1  UNL1        0.1378
     13 C           7.0800   39.4948    6.1675 C.3     1  UNL1        0.0437
     14 C           9.2876   38.9329    7.1622 C.3     1  UNL1        0.0437
     15 C           9.0251   39.0765    4.7202 C.3     1  UNL1        0.0437
     16 C          15.2459   44.3711    6.1575 C.2     1  UNL1        0.3571
     17 O          15.1544   45.0453    5.0949 O.2     1  UNL1       -0.2433
     18 O          16.2304   44.6667    7.1023 O.3     1  UNL1       -0.4444
     19 C          17.8659   43.4682    8.3808 C.3     1  UNL1        0.0513
     20 C          17.5260   44.0891    7.0421 C.3     1  UNL1        0.2089
@<TRIPOS>BOND
     1    19    20    1
     2    20    18    1
     3    16    18    1
     4    16     1    1
     5     2     3   ar
     6     4     5   ar
     7     4     9    1
     8     7    11    1
     9    12    11    1
    10    12    13    1
    11    12    14    1
    12    12    15    1
    13     5     1   ar
    14     9     7   am
    15    16    17    2
    16     1     2   ar
    17     3     4   ar
    18     7     8    2
    19     5     6    1
    20     9    10    1
@<TRIPOS>MOLECULE
MolPort-044-755-744 MCULE-6831971330 PubChem-12066245
 20 20 0 0 0
SMALL
GASTEIGER

@<TRIPOS>ATOM
      1 C          14.7198   43.1287    6.4193 C.ar    1  UNL1        0.1343
      2 C          13.3570   42.8904    6.4408 C.ar    1  UNL1        0.0264
      3 C          13.1730   41.8429    7.3244 C.ar    1  UNL1        0.0343
      4 C          14.4383   41.5169    7.7792 C.ar    1  UNL1        0.1142
      5 N          15.3884   42.2941    7.2343 N.ar    1  UNL1       -0.3366
      6 H          16.3590   42.2603    7.3958 H       1  UNL1        0.1673
      7 C          14.0742   39.2215    8.8300 C.2     1  UNL1        0.4062
      8 O          13.1165   38.9344    8.0607 O.2     1  UNL1       -0.2261
      9 N          14.7464   40.4811    8.7198 N.am    1  UNL1       -0.2365
     10 H          15.4866   40.6505    9.3465 H       1  UNL1        0.1596
     11 O          14.4999   38.3129    9.8084 O.3     1  UNL1       -0.4417
     12 C          13.9178   38.1861   11.1082 C.3     1  UNL1        0.1378
     13 C          14.9928   37.9759   12.1605 C.3     1  UNL1        0.0437
     14 C          12.9295   37.0330   11.1444 C.3     1  UNL1        0.0437
     15 C          13.1738   39.4640   11.4327 C.3     1  UNL1        0.0437
     16 C          15.3797   44.1615    5.6134 C.2     1  UNL1        0.3571
     17 O          14.8227   44.5977    4.5687 O.2     1  UNL1       -0.2433
     18 O          16.6233   44.6545    6.0128 O.3     1  UNL1       -0.4444
     19 C          18.3069   43.9858    7.5826 C.3     1  UNL1        0.0513
     20 C          17.7469   43.8044    6.1873 C.3     1  UNL1        0.2089
@<TRIPOS>BOND
     1    19    20    1
     2    20    18    1
     3    16    18    1
     4    16     1    1
     5     2     3   ar
     6     4     5   ar
     7     4     9    1
     8     7    11    1
     9    12    11    1
    10    12    13    1
    11    12    14    1
    12    12    15    1
    13     5     1   ar
    14     9     7   am
    15    16    17    2
    16     1     2   ar
    17     3     4   ar
    18     7     8    2
    19     5     6    1
    20     9    10    1
@<TRIPOS>MOLECULE
MolPort-044-755-744 MCULE-6831971330 PubChem-12066245
 20 20 0 0 0
SMALL
GASTEIGER

@<TRIPOS>ATOM
      1 C          10.4156   40.9634    6.5058 C.ar    1  UNL1        0.1343
      2 C          10.3632   40.2928    7.7149 C.ar    1  UNL1        0.0264
      3 C          11.6405   40.3645    8.2395 C.ar    1  UNL1        0.0343
      4 C          12.3815   41.0746    7.3116 C.ar    1  UNL1        0.1142
      5 N          11.6451   41.4445    6.2513 N.ar    1  UNL1       -0.3366
      6 H          11.9400   41.9547    5.4626 H       1  UNL1        0.1673
      7 C          14.4649   42.3969    6.6663 C.2     1  UNL1        0.4062
      8 O          13.8560   43.0855    5.8023 O.2     1  UNL1       -0.2261
      9 N          13.7719   41.4004    7.4261 N.am    1  UNL1       -0.2365
     10 H          14.2980   40.8937    8.0863 H       1  UNL1        0.1596
     11 O          15.8326   42.5937    6.9003 O.3     1  UNL1       -0.4417
     12 C          16.5151   43.8388    6.7324 C.3     1  UNL1        0.1378
     13 C          15.5404   44.9387    6.3489 C.3     1  UNL1        0.0437
     14 C          17.5988   43.7195    5.6746 C.3     1  UNL1        0.0437
     15 C          17.1679   44.2144    8.0457 C.3     1  UNL1        0.0437
     16 C           9.2806   41.1418    5.5940 C.2     1  UNL1        0.3571
     17 O           8.5104   42.1316    5.7320 O.2     1  UNL1       -0.2433
     18 O           9.0633   40.2105    4.5768 O.3     1  UNL1       -0.4444
     19 C           9.8977   38.1589    3.6601 C.3     1  UNL1        0.0513
     20 C          10.1341   39.6443    3.8362 C.3     1  UNL1        0.2089
@<TRIPOS>BOND
     1    19    20    1
     2    20    18    1
     3    16    18    1
     4    16     1    1
     5     2     3   ar
     6     4     5   ar
     7     4     9    1
     8     7    11    1
     9    12    11    1
    10    12    13    1
    11    12    14    1
    12    12    15    1
    13     5     1   ar
    14     9     7   am
    15    16    17    2
    16     1     2   ar
    17     3     4   ar
    18     7     8    2
    19     5     6    1
    20     9    10    1
@<TRIPOS>MOLECULE
MolPort-044-755-744 MCULE-6831971330 PubChem-12066245
 20 20 0 0 0
SMALL
GASTEIGER

@<TRIPOS>ATOM
      1 C          14.8219   43.4472    6.6656 C.ar    1  UNL1        0.1343
      2 C          13.7514   43.7797    5.8546 C.ar    1  UNL1        0.0264
      3 C          12.8468   42.7420    5.9830 C.ar    1  UNL1        0.0343
      4 C          13.4310   41.8497    6.8643 C.ar    1  UNL1        0.1142
      5 N          14.6347   42.2695    7.2866 N.ar    1  UNL1       -0.3366
      6 H          15.2446   41.8156    7.9121 H       1  UNL1        0.1673
      7 C          13.3324   39.8052    8.3861 C.2     1  UNL1        0.4062
      8 O          14.3423   40.1571    9.0553 O.2     1  UNL1       -0.2261
      9 N          12.8571   40.6125    7.3030 N.am    1  UNL1       -0.2365
     10 H          12.0651   40.2883    6.8164 H       1  UNL1        0.1596
     11 O          12.6548   38.6165    8.6895 O.3     1  UNL1       -0.4417
     12 C          11.3446   38.5502    9.2583 C.3     1  UNL1        0.1378
     13 C          10.2831   38.6728    8.1788 C.3     1  UNL1        0.0437
     14 C          11.1529   39.6434   10.2954 C.3     1  UNL1        0.0437
     15 C          11.1802   37.2090    9.9410 C.3     1  UNL1        0.0437
     16 C          16.0270   44.2644    6.8437 C.2     1  UNL1        0.3571
     17 O          16.4707   44.9513    5.8828 O.2     1  UNL1       -0.2433
     18 O          16.6737   44.2748    8.0809 O.3     1  UNL1       -0.4444
     19 C          17.8699   42.2042    8.2472 C.3     1  UNL1        0.0513
     20 C          17.9667   43.7155    8.2567 C.3     1  UNL1        0.2089
@<TRIPOS>BOND
     1    19    20    1
     2    20    18    1
     3    16    18    1
     4    16     1    1
     5     2     3   ar
     6     4     5   ar
     7     4     9    1
     8     7    11    1
     9    12    11    1
    10    12    13    1
    11    12    14    1
    12    12    15    1
    13     5     1   ar
    14     9     7   am
    15    16    17    2
    16     1     2   ar
    17     3     4   ar
    18     7     8    2
    19     5     6    1
    20     9    10    1
@<TRIPOS>MOLECULE
MolPort-044-755-744 MCULE-6831971330 PubChem-12066245
 20 20 0 0 0
SMALL
GASTEIGER

@<TRIPOS>ATOM
      1 C          15.4530   41.8194    8.0300 C.ar    1  UNL1        0.1343
      2 C          14.4368   42.3654    7.2660 C.ar    1  UNL1        0.0264
      3 C          13.3489   41.5291    7.4355 C.ar    1  UNL1        0.0343
      4 C          13.7799   40.5315    8.2919 C.ar    1  UNL1        0.1142
      5 N          15.0604   40.6986    8.6605 N.ar    1  UNL1       -0.3366
      6 H          15.5934   40.1272    9.2594 H       1  UNL1        0.1673
      7 C          13.3999   38.0599    8.7944 C.2     1  UNL1        0.4062
      8 O          14.5482   37.7217    8.3962 O.2     1  UNL1       -0.2261
      9 N          12.9892   39.4313    8.7574 N.am    1  UNL1       -0.2365
     10 H          12.0822   39.6364    9.0807 H       1  UNL1        0.1596
     11 O          12.5026   37.0998    9.2813 O.3     1  UNL1       -0.4417
     12 C          12.8090   36.1428   10.2984 C.3     1  UNL1        0.1378
     13 C          13.5556   34.9565    9.7131 C.3     1  UNL1        0.0437
     14 C          11.5417   35.6650   10.9863 C.3     1  UNL1        0.0437
     15 C          13.6953   36.8027   11.3334 C.3     1  UNL1        0.0437
     16 C          16.8039   42.3773    8.1538 C.2     1  UNL1        0.3571
     17 O          17.7877   41.6106    8.3447 O.2     1  UNL1       -0.2433
     18 O          16.9888   43.7578    8.0579 O.3     1  UNL1       -0.4444
     19 C          17.6450   43.8173    5.7531 C.3     1  UNL1        0.0513
     20 C          16.8020   44.4570    6.8364 C.3     1  UNL1        0.2089
@<TRIPOS>BOND
     1    19    20    1
     2    20    18    1
     3    16    18    1
     4    16     1    1
     5     2     3   ar
     6     4     5   ar
     7     4     9    1
     8     7    11    1
     9    12    11    1
    10    12    13    1
    11    12    14    1
    12    12    15    1
    13     5     1   ar
    14     9     7   am
    15    16    17    2
    16     1     2   ar
    17     3     4   ar
    18     7     8    2
    19     5     6    1
    20     9    10    1
@<TRIPOS>MOLECULE
MolPort-044-755-744 MCULE-6831971330 PubChem-12066245
 20 20 0 0 0
SMALL
GASTEIGER

@<TRIPOS>ATOM
      1 C           4.6690   41.2162    9.2778 C.ar    1  UNL1        0.1343
      2 C           5.8462   41.6237    9.8797 C.ar    1  UNL1        0.0264
      3 C           6.8545   41.2960    8.9922 C.ar    1  UNL1        0.0343
      4 C           6.2193   40.7114    7.9111 C.ar    1  UNL1        0.1142
      5 N           4.8874   40.6577    8.0744 N.ar    1  UNL1       -0.3366
      6 H           4.2193   40.2908    7.4513 H       1  UNL1        0.1673
      7 C           7.7503   40.9455    5.8845 C.2     1  UNL1        0.4062
      8 O           8.0294   42.1498    6.1362 O.2     1  UNL1       -0.2261
      9 N           6.8648   40.2085    6.7351 N.am    1  UNL1       -0.2365
     10 H           6.6833   39.2725    6.4897 H       1  UNL1        0.1596
     11 O           8.3017   40.3043    4.7670 O.3     1  UNL1       -0.4417
     12 C           9.5288   39.5704    4.7742 C.3     1  UNL1        0.1378
     13 C          10.7174   40.5093    4.6611 C.3     1  UNL1        0.0437
     14 C           9.5590   38.5625    3.6381 C.3     1  UNL1        0.0437
     15 C           9.6359   38.8184    6.0838 C.3     1  UNL1        0.0437
     16 C           3.3314   41.3648    9.8614 C.2     1  UNL1        0.3571
     17 O           2.3190   41.4248    9.1108 O.2     1  UNL1       -0.2433
     18 O           3.1912   41.4379   11.2486 O.3     1  UNL1       -0.4444
     19 C           1.3876   42.2925   12.5762 C.3     1  UNL1        0.0513
     20 C           2.7026   42.6047   11.8932 C.3     1  UNL1        0.2089
@<TRIPOS>BOND
     1    19    20    1
     2    20    18    1
     3    16    18    1
     4    16     1    1
     5     2     3   ar
     6     4     5   ar
     7     4     9    1
     8     7    11    1
     9    12    11    1
    10    12    13    1
    11    12    14    1
    12    12    15    1
    13     5     1   ar
    14     9     7   am
    15    16    17    2
    16     1     2   ar
    17     3     4   ar
    18     7     8    2
    19     5     6    1
    20     9    10    1
@<TRIPOS>MOLECULE
MolPort-044-755-744 MCULE-6831971330 PubChem-12066245
 20 20 0 0 0
SMALL
GASTEIGER

@<TRIPOS>ATOM
      1 C          12.6131   39.0981    9.9819 C.ar    1  UNL1        0.1343
      2 C          12.4213   39.9406   11.0625 C.ar    1  UNL1        0.0264
      3 C          11.2188   40.5821   10.8296 C.ar    1  UNL1        0.0343
      4 C          10.7627   40.0843    9.6220 C.ar    1  UNL1        0.1142
      5 N          11.6044   39.1793    9.0966 N.ar    1  UNL1       -0.3366
      6 H          11.5049   38.6851    8.2510 H       1  UNL1        0.1673
      7 C           9.4369   41.2430    7.7765 C.2     1  UNL1        0.4062
      8 O          10.4710   41.6715    7.1946 O.2     1  UNL1       -0.2261
      9 N           9.5431   40.4603    8.9710 N.am    1  UNL1       -0.2365
     10 H           8.7027   40.1530    9.3816 H       1  UNL1        0.1596
     11 O           8.1627   41.5243    7.2652 O.3     1  UNL1       -0.4417
     12 C           7.2999   42.5543    7.7542 C.3     1  UNL1        0.1378
     13 C           6.6904   43.3363    6.6035 C.3     1  UNL1        0.0437
     14 C           8.0563   43.4974    8.6741 C.3     1  UNL1        0.0437
     15 C           6.1788   41.9129    8.5438 C.3     1  UNL1        0.0437
     16 C          13.7688   38.2131    9.8010 C.2     1  UNL1        0.3571
     17 O          14.7152   38.5592    9.0416 O.2     1  UNL1       -0.2433
     18 O          13.8108   36.9911   10.4748 O.3     1  UNL1       -0.4444
     19 C          11.7843   35.7447   10.7669 C.3     1  UNL1        0.0513
     20 C          13.0939   35.8553   10.0147 C.3     1  UNL1        0.2089
@<TRIPOS>BOND
     1    19    20    1
     2    20    18    1
     3    16    18    1
     4    16     1    1
     5     2     3   ar
     6     4     5   ar
     7     4     9    1
     8     7    11    1
     9    12    11    1
    10    12    13    1
    11    12    14    1
    12    12    15    1
    13     5     1   ar
    14     9     7   am
    15    16    17    2
    16     1     2   ar
    17     3     4   ar
    18     7     8    2
    19     5     6    1
    20     9    10    1
@<TRIPOS>MOLECULE
MolPort-044-755-744 MCULE-6831971330 PubChem-12066245
 20 20 0 0 0
SMALL
GASTEIGER

@<TRIPOS>ATOM
      1 C           9.8677   39.9282    5.7979 C.ar    1  UNL1        0.1343
      2 C          10.3247   41.2336    5.8371 C.ar    1  UNL1        0.0264
      3 C          11.4514   41.2129    6.6383 C.ar    1  UNL1        0.0343
      4 C          11.6011   39.8947    7.0309 C.ar    1  UNL1        0.1142
      5 N          10.6417   39.1032    6.5245 N.ar    1  UNL1       -0.3366
      6 H          10.5299   38.1339    6.6561 H       1  UNL1        0.1673
      7 C          12.4911   38.3689    8.8709 C.2     1  UNL1        0.4062
      8 O          11.3699   37.8267    9.0719 O.2     1  UNL1       -0.2261
      9 N          12.6410   39.3882    7.8762 N.am    1  UNL1       -0.2365
     10 H          13.5390   39.7755    7.7632 H       1  UNL1        0.1596
     11 O          13.6132   37.9844    9.6173 O.3     1  UNL1       -0.4417
     12 C          14.2286   38.7840   10.6303 C.3     1  UNL1        0.1378
     13 C          13.2095   39.7010   11.2844 C.3     1  UNL1        0.0437
     14 C          15.3642   39.6083   10.0485 C.3     1  UNL1        0.0437
     15 C          14.7982   37.8672   11.6919 C.3     1  UNL1        0.0437
     16 C           8.6844   39.4740    5.0596 C.2     1  UNL1        0.3571
     17 O           7.6286   39.1755    5.6827 O.2     1  UNL1       -0.2433
     18 O           8.7380   39.3767    3.6679 O.3     1  UNL1       -0.4444
     19 C           9.8895   37.3029    3.3225 C.3     1  UNL1        0.0513
     20 C           9.8399   38.7815    2.9991 C.3     1  UNL1        0.2089
@<TRIPOS>BOND
     1    19    20    1
     2    20    18    1
     3    16    18    1
     4    16     1    1
     5     2     3   ar
     6     4     5   ar
     7     4     9    1
     8     7    11    1
     9    12    11    1
    10    12    13    1
    11    12    14    1
    12    12    15    1
    13     5     1   ar
    14     9     7   am
    15    16    17    2
    16     1     2   ar
    17     3     4   ar
    18     7     8    2
    19     5     6    1
    20     9    10    1
@<TRIPOS>MOLECULE
MolPort-044-755-744 MCULE-6831971330 PubChem-12066245
 20 20 0 0 0
SMALL
GASTEIGER

@<TRIPOS>ATOM
      1 C          14.1508   41.3941    7.8453 C.ar    1  UNL1        0.1343
      2 C          14.6719   42.3578    7.0003 C.ar    1  UNL1        0.0264
      3 C          13.5992   42.8384    6.2722 C.ar    1  UNL1        0.0343
      4 C          12.4991   42.1325    6.7258 C.ar    1  UNL1        0.1142
      5 N          12.8237   41.2498    7.6845 N.ar    1  UNL1       -0.3366
      6 H          12.2232   40.6338    8.1632 H       1  UNL1        0.1673
      7 C          10.1745   41.2516    6.1548 C.2     1  UNL1        0.4062
      8 O          10.4551   40.0680    6.4896 O.2     1  UNL1       -0.2261
      9 N          11.1543   42.2908    6.2579 N.am    1  UNL1       -0.2365
     10 H          10.8792   43.1951    5.9824 H       1  UNL1        0.1596
     11 O           8.8976   41.5733    5.6753 O.3     1  UNL1       -0.4417
     12 C           7.7445   41.7646    6.4987 C.3     1  UNL1        0.1378
     13 C           6.9632   42.9888    6.0538 C.3     1  UNL1        0.0437
     14 C           8.1436   41.9106    7.9571 C.3     1  UNL1        0.0437
     15 C           6.8485   40.5513    6.3672 C.3     1  UNL1        0.0437
     16 C          14.9310   40.6110    8.8094 C.2     1  UNL1        0.3571
     17 O          16.1592   40.8515    8.9702 O.2     1  UNL1       -0.2433
     18 O          14.3037   39.6029    9.5439 O.3     1  UNL1       -0.4444
     19 C          14.1456   38.8301   11.8074 C.3     1  UNL1        0.0513
     20 C          13.6867   39.8600   10.7964 C.3     1  UNL1        0.2089
@<TRIPOS>BOND
     1    19    20    1
     2    20    18    1
     3    16    18    1
     4    16     1    1
     5     2     3   ar
     6     4     5   ar
     7     4     9    1
     8     7    11    1
     9    12    11    1
    10    12    13    1
    11    12    14    1
    12    12    15    1
    13     5     1   ar
    14     9     7   am
    15    16    17    2
    16     1     2   ar
    17     3     4   ar
    18     7     8    2
    19     5     6    1
    20     9    10    1
@<TRIPOS>MOLECULE
MolPort-044-755-744 MCULE-6831971330 PubChem-12066245
 20 20 0 0 0
SMALL
GASTEIGER

@<TRIPOS>ATOM
      1 C           7.4815   43.9031    8.8780 C.ar    1  UNL1        0.1343
      2 C           8.2495   44.9483    9.3597 C.ar    1  UNL1        0.0264
      3 C           9.3162   44.3600   10.0138 C.ar    1  UNL1        0.0343
      4 C           9.1221   42.9963    9.8841 C.ar    1  UNL1        0.1142
      5 N           8.0073   42.7066    9.1937 N.ar    1  UNL1       -0.3366
      6 H           7.6535   41.8158    8.9687 H       1  UNL1        0.1673
      7 C          10.2748   40.7233    9.7803 C.2     1  UNL1        0.4062
      8 O           9.7626   40.4268    8.6661 O.2     1  UNL1       -0.2261
      9 N           9.9822   41.9770   10.4075 N.am    1  UNL1       -0.2365
     10 H          10.4104   42.1543   11.2761 H       1  UNL1        0.1596
     11 O          11.1411   39.8313   10.4268 O.3     1  UNL1       -0.4417
     12 C          12.5120   39.6300   10.0742 C.3     1  UNL1        0.1378
     13 C          12.6632   38.4141    9.1765 C.3     1  UNL1        0.0437
     14 C          13.3678   39.4614   11.3178 C.3     1  UNL1        0.0437
     15 C          13.0015   40.8469    9.3181 C.3     1  UNL1        0.0437
     16 C           6.2398   44.0559    8.1123 C.2     1  UNL1        0.3571
     17 O           6.2258   43.8025    6.8764 O.2     1  UNL1       -0.2433
     18 O           5.0797   44.4815    8.7621 O.3     1  UNL1       -0.4444
     19 C           3.9299   42.6992    9.8789 C.3     1  UNL1        0.0513
     20 C           3.8878   43.7101    8.7521 C.3     1  UNL1        0.2089
@<TRIPOS>BOND
     1    19    20    1
     2    20    18    1
     3    16    18    1
     4    16     1    1
     5     2     3   ar
     6     4     5   ar
     7     4     9    1
     8     7    11    1
     9    12    11    1
    10    12    13    1
    11    12    14    1
    12    12    15    1
    13     5     1   ar
    14     9     7   am
    15    16    17    2
    16     1     2   ar
    17     3     4   ar
    18     7     8    2
    19     5     6    1
    20     9    10    1
