@<TRIPOS>MOLECULE
Molport-051-825-208 MCULE-6404919247 MCULE-9761543365
 32 34 0 0 0
SMALL
GASTEIGER

@<TRIPOS>ATOM
      1 C          13.0523   38.5642    8.2507 C.2     1  UNL1        0.2555
      2 N          13.8357   37.9254    9.2700 N.am    1  UNL1       -0.2802
      3 O          13.2977   38.3495    7.0325 O.2     1  UNL1       -0.2696
      4 H          13.5681   38.0967   10.2018 H       1  UNL1        0.1552
      5 C          11.9274   39.4609    8.6278 C.ar    1  UNL1        0.1256
      6 C          10.7826   38.9796    9.3016 C.ar    1  UNL1       -0.0085
      7 C          10.6388   37.5595    9.7362 C.3     1  UNL1        0.0315
      8 C           9.7548   39.8601    9.6288 C.ar    1  UNL1        0.0292
      9 C           9.8742   41.2036    9.2832 C.ar    1  UNL1        0.1268
     10 C          11.9697   40.8398    8.3183 C.ar    1  UNL1        0.3496
     11 O          10.9603   41.6386    8.6519 O.2     1  UNL1       -0.4254
     12 O          12.9557   41.3328    7.7081 O.2     1  UNL1       -0.2443
     13 C           8.7740   42.1500    9.6270 C.3     1  UNL1        0.0733
     14 C           7.4173   41.4533    9.4992 C.3     1  UNL1        0.0103
     15 C           6.2717   42.4609    9.5999 C.3     1  UNL1        0.0176
     16 C           6.5153   43.7172    8.7491 C.3     1  UNL1        0.0686
     17 C           8.8695   43.4220    8.7674 C.3     1  UNL1        0.0761
     18 N           7.7007   43.5819    7.9022 N.3     1  UNL1       -0.2971
     19 H           7.8099   44.4167    7.3263 H       1  UNL1        0.1233
     20 C          15.8434   34.9520    8.2615 C.ar    1  UNL1       -0.0049
     21 C          17.1260   35.3184    8.6806 C.ar    1  UNL1       -0.0028
     22 C          17.3331   36.5569    9.2931 C.ar    1  UNL1        0.0010
     23 C          16.2572   37.4271    9.4904 C.ar    1  UNL1        0.0147
     24 C          14.9662   37.0648    9.0767 C.ar    1  UNL1        0.0503
     25 C          14.7675   35.8224    8.4656 C.ar    1  UNL1        0.0118
     26 C          15.6149   33.6210    7.6303 C.3     1  UNL1        0.0993
     27 C          17.7701   33.5717    8.5094 C.3     1  UNL1        0.0900
     28 N          16.7719   32.7624    7.8348 N.3     1  UNL1       -0.2656
     29 C          17.3140   32.4467    6.5231 C.3     1  UNL1        0.1045
     30 C          16.1816   32.1527    5.5581 C.3     1  UNL1        0.1544
     31 O          15.2302   31.3521    6.1879 O.3     1  UNL1       -0.3805
     32 H          15.6420   30.5191    6.4664 H       1  UNL1        0.2105
@<TRIPOS>BOND
     1    27    28    1
     2    29    28    1
     3    29    30    1
     4    30    31    1
     5    26    28    1
     6    26    20    1
     7    21    22   ar
     8    23    24   ar
     9    24     2    1
    10     1     5    1
    11     6     8   ar
    12     7     6    1
    13     9    11   ar
    14    10    11   ar
    15    10     5   ar
    16    13     9    1
    17    13    14    1
    18    14    15    1
    19    15    16    1
    20    16    18    1
    21    17    18    1
    22    17    13    1
    23    25    20   ar
    24     2     1   am
    25    20    21   ar
    26    22    23   ar
    27    24    25   ar
    28     1     3    2
    29     5     6   ar
    30     8     9   ar
    31    10    12    2
    32     2     4    1
    33    18    19    1
    34    31    32    1
@<TRIPOS>MOLECULE
Molport-051-825-208 MCULE-6404919247 MCULE-9761543365
 32 34 0 0 0
SMALL
GASTEIGER

@<TRIPOS>ATOM
      1 C          16.1538   39.0495    9.6779 C.2     1  UNL1        0.2555
      2 N          16.4018   39.9564    8.5931 N.am    1  UNL1       -0.2802
      3 O          16.0804   39.4793   10.8613 O.2     1  UNL1       -0.2696
      4 H          16.4035   39.5688    7.6881 H       1  UNL1        0.1552
      5 C          15.9533   37.6010    9.4074 C.ar    1  UNL1        0.1256
      6 C          14.6642   37.0310    9.3102 C.ar    1  UNL1       -0.0085
      7 C          13.4142   37.8394    9.4118 C.3     1  UNL1        0.0315
      8 C          14.5307   35.6680    9.0594 C.ar    1  UNL1        0.0292
      9 C          15.6747   34.8887    8.9097 C.ar    1  UNL1        0.1268
     10 C          17.0612   36.7391    9.2381 C.ar    1  UNL1        0.3496
     11 O          16.8794   35.4433    9.0014 O.2     1  UNL1       -0.4254
     12 O          18.2387   37.1795    9.3239 O.2     1  UNL1       -0.2443
     13 C          15.5374   33.4273    8.6456 C.3     1  UNL1        0.0733
     14 C          15.9050   33.1150    7.1931 C.3     1  UNL1        0.0103
     15 C          15.5340   31.6768    6.8305 C.3     1  UNL1        0.0176
     16 C          14.1263   31.2919    7.3122 C.3     1  UNL1        0.0686
     17 C          14.1250   32.9434    9.0158 C.3     1  UNL1        0.0761
     18 N          13.3991   32.4426    7.8486 N.3     1  UNL1       -0.2971
     19 H          12.4588   32.1583    8.1234 H       1  UNL1        0.1233
     20 C          16.4462   43.5718    7.6901 C.ar    1  UNL1       -0.0049
     21 C          17.1078   44.1317    8.7873 C.ar    1  UNL1       -0.0028
     22 C          17.5360   43.3140    9.8360 C.ar    1  UNL1        0.0010
     23 C          17.3065   41.9361    9.7857 C.ar    1  UNL1        0.0147
     24 C          16.6473   41.3660    8.6860 C.ar    1  UNL1        0.0503
     25 C          16.2232   42.1918    7.6398 C.ar    1  UNL1        0.0118
     26 C          16.0103   44.4383    6.5581 C.3     1  UNL1        0.0993
     27 C          14.2710   44.8640    5.0703 C.3     1  UNL1        0.0900
     28 N          14.9089   43.8129    5.8415 N.3     1  UNL1       -0.2656
     29 C          13.9372   43.3807    6.8330 C.3     1  UNL1        0.1045
     30 C          12.8388   42.5812    6.1589 C.3     1  UNL1        0.1544
     31 O          11.9390   42.1248    7.1206 O.3     1  UNL1       -0.3805
     32 H          12.4049   41.5608    7.7575 H       1  UNL1        0.2105
@<TRIPOS>BOND
     1    27    28    1
     2    29    28    1
     3    29    30    1
     4    30    31    1
     5    26    28    1
     6    26    20    1
     7    21    22   ar
     8    23    24   ar
     9    24     2    1
    10     1     5    1
    11     6     8   ar
    12     7     6    1
    13     9    11   ar
    14    10    11   ar
    15    10     5   ar
    16    13     9    1
    17    13    14    1
    18    14    15    1
    19    15    16    1
    20    16    18    1
    21    17    18    1
    22    17    13    1
    23    25    20   ar
    24     2     1   am
    25    20    21   ar
    26    22    23   ar
    27    24    25   ar
    28     1     3    2
    29     5     6   ar
    30     8     9   ar
    31    10    12    2
    32     2     4    1
    33    18    19    1
    34    31    32    1
@<TRIPOS>MOLECULE
Molport-051-825-208 MCULE-6404919247 MCULE-9761543365
 32 34 0 0 0
SMALL
GASTEIGER

@<TRIPOS>ATOM
      1 C           9.3865   40.6946    6.1263 C.2     1  UNL1        0.2555
      2 N           8.0224   40.8309    6.5521 N.am    1  UNL1       -0.2802
      3 O          10.2301   41.5912    6.3996 O.2     1  UNL1       -0.2696
      4 H           7.4212   40.0783    6.3483 H       1  UNL1        0.1552
      5 C           9.8179   39.4798    5.3848 C.ar    1  UNL1        0.1256
      6 C           9.3643   38.1891    5.7380 C.ar    1  UNL1       -0.0085
      7 C           8.3806   37.9509    6.8342 C.3     1  UNL1        0.0315
      8 C           9.8015   37.0832    5.0138 C.ar    1  UNL1        0.0292
      9 C          10.6822   37.2703    3.9518 C.ar    1  UNL1        0.1268
     10 C          10.7075   39.5810    4.2906 C.ar    1  UNL1        0.3496
     11 O          11.0958   38.4928    3.6324 O.2     1  UNL1       -0.4254
     12 O          11.1598   40.7004    3.9298 O.2     1  UNL1       -0.2443
     13 C          11.1574   36.0886    3.1759 C.3     1  UNL1        0.0733
     14 C          10.2192   34.8995    3.3951 C.3     1  UNL1        0.0103
     15 C          10.8166   33.6158    2.8181 C.3     1  UNL1        0.0176
     16 C          12.2979   33.4376    3.1866 C.3     1  UNL1        0.0686
     17 C          12.6183   35.7632    3.5309 C.3     1  UNL1        0.0761
     18 N          12.7459   34.4438    4.1497 N.3     1  UNL1       -0.2971
     19 H          13.7202   34.2727    4.3987 H       1  UNL1        0.1233
     20 C           6.9194   43.0297    9.3516 C.ar    1  UNL1       -0.0049
     21 C           6.3091   44.0829    8.6636 C.ar    1  UNL1       -0.0028
     22 C           6.2670   44.0731    7.2672 C.ar    1  UNL1        0.0010
     23 C           6.8311   43.0082    6.5589 C.ar    1  UNL1        0.0147
     24 C           7.4413   41.9453    7.2422 C.ar    1  UNL1        0.0503
     25 C           7.4779   41.9625    8.6403 C.ar    1  UNL1        0.0118
     26 C           6.9440   43.0251   10.8421 C.3     1  UNL1        0.0993
     27 C           7.9578   42.1693   12.7552 C.3     1  UNL1        0.0900
     28 N           7.8053   41.9574   11.3274 N.3     1  UNL1       -0.2656
     29 C           9.1189   42.1589   10.7376 C.3     1  UNL1        0.1045
     30 C          10.1603   41.3968   11.5343 C.3     1  UNL1        0.1544
     31 O          10.8832   40.5662   10.6797 O.3     1  UNL1       -0.3805
     32 H          10.2799   39.9382   10.2525 H       1  UNL1        0.2105
@<TRIPOS>BOND
     1    27    28    1
     2    29    28    1
     3    29    30    1
     4    30    31    1
     5    26    28    1
     6    26    20    1
     7    21    22   ar
     8    23    24   ar
     9    24     2    1
    10     1     5    1
    11     6     8   ar
    12     7     6    1
    13     9    11   ar
    14    10    11   ar
    15    10     5   ar
    16    13     9    1
    17    13    14    1
    18    14    15    1
    19    15    16    1
    20    16    18    1
    21    17    18    1
    22    17    13    1
    23    25    20   ar
    24     2     1   am
    25    20    21   ar
    26    22    23   ar
    27    24    25   ar
    28     1     3    2
    29     5     6   ar
    30     8     9   ar
    31    10    12    2
    32     2     4    1
    33    18    19    1
    34    31    32    1
@<TRIPOS>MOLECULE
Molport-051-825-208 MCULE-6404919247 MCULE-9761543365
 32 34 0 0 0
SMALL
GASTEIGER

@<TRIPOS>ATOM
      1 C           8.3087   41.1362    9.7843 C.2     1  UNL1        0.2555
      2 N           7.3566   41.0927   10.8578 N.am    1  UNL1       -0.2802
      3 O           7.9560   41.5247    8.6375 O.2     1  UNL1       -0.2696
      4 H           7.7011   40.8240   11.7400 H       1  UNL1        0.1552
      5 C           9.7241   40.7502   10.0274 C.ar    1  UNL1        0.1256
      6 C          10.4686   40.0088    9.0828 C.ar    1  UNL1       -0.0085
      7 C           9.9181   39.6091    7.7549 C.3     1  UNL1        0.0315
      8 C          11.7901   39.6691    9.3605 C.ar    1  UNL1        0.0292
      9 C          12.3550   40.0667   10.5694 C.ar    1  UNL1        0.1268
     10 C          10.3756   41.1173   11.2273 C.ar    1  UNL1        0.3496
     11 O          11.6397   40.7665   11.4447 O.2     1  UNL1       -0.4254
     12 O           9.7665   41.7687   12.1175 O.2     1  UNL1       -0.2443
     13 C          13.7685   39.7013   10.8739 C.3     1  UNL1        0.0733
     14 C          14.6762   40.0736    9.6992 C.3     1  UNL1        0.0103
     15 C          16.0760   39.4858    9.8801 C.3     1  UNL1        0.0176
     16 C          16.0448   38.0149   10.3238 C.3     1  UNL1        0.0686
     17 C          13.8707   38.2140   11.2528 C.3     1  UNL1        0.0761
     18 N          14.6891   37.4655   10.2988 N.3     1  UNL1       -0.2971
     19 H          14.7115   36.4804   10.5624 H       1  UNL1        0.1233
     20 C           4.1585   42.6036    9.6839 C.ar    1  UNL1       -0.0049
     21 C           3.2383   42.0596   10.5852 C.ar    1  UNL1       -0.0028
     22 C           3.6726   41.1827   11.5823 C.ar    1  UNL1        0.0010
     23 C           5.0274   40.8532   11.6810 C.ar    1  UNL1        0.0147
     24 C           5.9577   41.3986   10.7832 C.ar    1  UNL1        0.0503
     25 C           5.5145   42.2767    9.7888 C.ar    1  UNL1        0.0118
     26 C           3.7018   43.5589    8.6346 C.3     1  UNL1        0.0993
     27 C           4.2115   45.4662    7.4007 C.3     1  UNL1        0.0900
     28 N           4.5946   44.7066    8.5766 N.3     1  UNL1       -0.2656
     29 C           5.9340   44.2008    8.3230 C.3     1  UNL1        0.1045
     30 C           6.1496   44.0485    6.8296 C.3     1  UNL1        0.1544
     31 O           7.4792   43.7101    6.5840 O.3     1  UNL1       -0.3805
     32 H           8.0590   44.4093    6.9246 H       1  UNL1        0.2105
@<TRIPOS>BOND
     1    27    28    1
     2    29    28    1
     3    29    30    1
     4    30    31    1
     5    26    28    1
     6    26    20    1
     7    21    22   ar
     8    23    24   ar
     9    24     2    1
    10     1     5    1
    11     6     8   ar
    12     7     6    1
    13     9    11   ar
    14    10    11   ar
    15    10     5   ar
    16    13     9    1
    17    13    14    1
    18    14    15    1
    19    15    16    1
    20    16    18    1
    21    17    18    1
    22    17    13    1
    23    25    20   ar
    24     2     1   am
    25    20    21   ar
    26    22    23   ar
    27    24    25   ar
    28     1     3    2
    29     5     6   ar
    30     8     9   ar
    31    10    12    2
    32     2     4    1
    33    18    19    1
    34    31    32    1
@<TRIPOS>MOLECULE
Molport-051-825-208 MCULE-6404919247 MCULE-9761543365
 32 34 0 0 0
SMALL
GASTEIGER

@<TRIPOS>ATOM
      1 C          10.9719   39.9183   10.0127 C.2     1  UNL1        0.2555
      2 N          10.8069   38.5488    9.6153 N.am    1  UNL1       -0.2802
      3 O          12.0688   40.3126   10.4939 O.2     1  UNL1       -0.2696
      4 H           9.9440   38.3112    9.2052 H       1  UNL1        0.1552
      5 C           9.8575   40.8862    9.8315 C.ar    1  UNL1        0.1256
      6 C           9.1807   41.4600   10.9311 C.ar    1  UNL1       -0.0085
      7 C           9.5651   41.1884   12.3470 C.3     1  UNL1        0.0315
      8 C           8.1409   42.3585   10.7074 C.ar    1  UNL1        0.0292
      9 C           7.7849   42.6750    9.3991 C.ar    1  UNL1        0.1268
     10 C           9.4354   41.2656    8.5366 C.ar    1  UNL1        0.3496
     11 O           8.4353   42.1273    8.3771 O.2     1  UNL1       -0.4254
     12 O           9.9878   40.7829    7.5121 O.2     1  UNL1       -0.2443
     13 C           6.6686   43.6331    9.1540 C.3     1  UNL1        0.0733
     14 C           5.3202   42.9350    9.3459 C.3     1  UNL1        0.0103
     15 C           4.1710   43.8184    8.8594 C.3     1  UNL1        0.0176
     16 C           4.4582   44.4593    7.4926 C.3     1  UNL1        0.0686
     17 C           6.8083   44.2790    7.7649 C.3     1  UNL1        0.0761
     18 N           5.6856   43.9370    6.8915 N.3     1  UNL1       -0.2971
     19 H           5.8244   44.3560    5.9719 H       1  UNL1        0.1233
     20 C          13.9734   36.6189    9.2438 C.ar    1  UNL1       -0.0049
     21 C          13.6819   35.4526    9.9577 C.ar    1  UNL1       -0.0028
     22 C          12.4364   35.3033   10.5726 C.ar    1  UNL1        0.0010
     23 C          11.4807   36.3181   10.4699 C.ar    1  UNL1        0.0147
     24 C          11.7639   37.4897    9.7514 C.ar    1  UNL1        0.0503
     25 C          13.0129   37.6304    9.1378 C.ar    1  UNL1        0.0118
     26 C          15.2923   36.7706    8.5658 C.3     1  UNL1        0.0993
     27 C          16.9115   37.5147   10.0639 C.3     1  UNL1        0.0900
     28 N          16.3631   36.3227    9.4434 N.3     1  UNL1       -0.2656
     29 C          17.4138   35.7758    8.6002 C.3     1  UNL1        0.1045
     30 C          16.9542   34.4628    7.9962 C.3     1  UNL1        0.1544
     31 O          16.8114   33.5117    9.0051 O.3     1  UNL1       -0.3805
     32 H          17.6634   33.3820    9.4501 H       1  UNL1        0.2105
@<TRIPOS>BOND
     1    27    28    1
     2    29    28    1
     3    29    30    1
     4    30    31    1
     5    26    28    1
     6    26    20    1
     7    21    22   ar
     8    23    24   ar
     9    24     2    1
    10     1     5    1
    11     6     8   ar
    12     7     6    1
    13     9    11   ar
    14    10    11   ar
    15    10     5   ar
    16    13     9    1
    17    13    14    1
    18    14    15    1
    19    15    16    1
    20    16    18    1
    21    17    18    1
    22    17    13    1
    23    25    20   ar
    24     2     1   am
    25    20    21   ar
    26    22    23   ar
    27    24    25   ar
    28     1     3    2
    29     5     6   ar
    30     8     9   ar
    31    10    12    2
    32     2     4    1
    33    18    19    1
    34    31    32    1
@<TRIPOS>MOLECULE
Molport-051-825-208 MCULE-6404919247 MCULE-9761543365
 32 34 0 0 0
SMALL
GASTEIGER

@<TRIPOS>ATOM
      1 C          11.3008   41.8601    9.0128 C.2     1  UNL1        0.2555
      2 N          10.1985   41.1737    8.4009 N.am    1  UNL1       -0.2802
      3 O          11.2425   43.1038    9.2134 O.2     1  UNL1       -0.2696
      4 H          10.2842   40.1970    8.3115 H       1  UNL1        0.1552
      5 C          12.5066   41.1016    9.4398 C.ar    1  UNL1        0.1256
      6 C          13.6848   41.0720    8.6606 C.ar    1  UNL1       -0.0085
      7 C          13.8317   41.8394    7.3895 C.3     1  UNL1        0.0315
      8 C          14.7854   40.3431    9.1034 C.ar    1  UNL1        0.0292
      9 C          14.7036   39.6531   10.3099 C.ar    1  UNL1        0.1268
     10 C          12.5099   40.3768   10.6538 C.ar    1  UNL1        0.3496
     11 O          13.5875   39.6951   11.0310 O.2     1  UNL1       -0.4254
     12 O          11.4884   40.3509   11.3911 O.2     1  UNL1       -0.2443
     13 C          15.8780   38.8669   10.7864 C.3     1  UNL1        0.0733
     14 C          17.1731   39.6402   10.5270 C.3     1  UNL1        0.0103
     15 C          18.3973   38.7578   10.7728 C.3     1  UNL1        0.0176
     16 C          18.2558   37.3641   10.1410 C.3     1  UNL1        0.0686
     17 C          15.8854   37.4682   10.1463 C.3     1  UNL1        0.0761
     18 N          17.0620   37.2638    9.3012 N.3     1  UNL1       -0.2971
     19 H          17.0204   36.3403    8.8702 H       1  UNL1        0.1233
     20 C           6.8075   42.7195    8.3818 C.ar    1  UNL1       -0.0049
     21 C           6.5799   42.8910    7.0130 C.ar    1  UNL1       -0.0028
     22 C           7.5532   42.5019    6.0893 C.ar    1  UNL1        0.0010
     23 C           8.7521   41.9373    6.5341 C.ar    1  UNL1        0.0147
     24 C           8.9861   41.7576    7.9060 C.ar    1  UNL1        0.0503
     25 C           8.0057   42.1488    8.8237 C.ar    1  UNL1        0.0118
     26 C           5.7607   43.1107    9.3685 C.3     1  UNL1        0.0993
     27 C           4.0236   44.3306    8.4123 C.3     1  UNL1        0.0900
     28 N           4.4383   42.9876    8.7739 N.3     1  UNL1       -0.2656
     29 C           3.5324   42.5437    9.8210 C.3     1  UNL1        0.1045
     30 C           3.1720   41.0869    9.6028 C.3     1  UNL1        0.1544
     31 O           2.2508   40.9868    8.5617 O.3     1  UNL1       -0.3805
     32 H           1.4512   41.4871    8.7882 H       1  UNL1        0.2105
@<TRIPOS>BOND
     1    27    28    1
     2    29    28    1
     3    29    30    1
     4    30    31    1
     5    26    28    1
     6    26    20    1
     7    21    22   ar
     8    23    24   ar
     9    24     2    1
    10     1     5    1
    11     6     8   ar
    12     7     6    1
    13     9    11   ar
    14    10    11   ar
    15    10     5   ar
    16    13     9    1
    17    13    14    1
    18    14    15    1
    19    15    16    1
    20    16    18    1
    21    17    18    1
    22    17    13    1
    23    25    20   ar
    24     2     1   am
    25    20    21   ar
    26    22    23   ar
    27    24    25   ar
    28     1     3    2
    29     5     6   ar
    30     8     9   ar
    31    10    12    2
    32     2     4    1
    33    18    19    1
    34    31    32    1
@<TRIPOS>MOLECULE
Molport-051-825-208 MCULE-6404919247 MCULE-9761543365
 32 34 0 0 0
SMALL
GASTEIGER

@<TRIPOS>ATOM
      1 C          11.6193   41.5380    9.0915 C.2     1  UNL1        0.2555
      2 N          10.6011   40.7847    8.4160 N.am    1  UNL1       -0.2802
      3 O          11.4138   42.7406    9.4107 O.2     1  UNL1       -0.2696
      4 H          10.8029   39.8386    8.2331 H       1  UNL1        0.1552
      5 C          12.9125   40.8937    9.4443 C.ar    1  UNL1        0.1256
      6 C          14.0572   41.0198    8.6258 C.ar    1  UNL1       -0.0085
      7 C          14.0758   41.8492    7.3856 C.3     1  UNL1        0.0315
      8 C          15.2433   40.3933    8.9990 C.ar    1  UNL1        0.0292
      9 C          15.2790   39.6502   10.1759 C.ar    1  UNL1        0.1268
     10 C          13.0366   40.1248   10.6242 C.ar    1  UNL1        0.3496
     11 O          14.1925   39.5454   10.9348 O.2     1  UNL1       -0.4254
     12 O          12.0519   39.9618   11.3932 O.2     1  UNL1       -0.2443
     13 C          16.5456   38.9731   10.5778 C.3     1  UNL1        0.0733
     14 C          17.7515   39.7288   10.0144 C.3     1  UNL1        0.0103
     15 C          19.0380   38.9230   10.1974 C.3     1  UNL1        0.0176
     16 C          18.8697   37.4469    9.8047 C.3     1  UNL1        0.0686
     17 C          16.5235   37.4943   10.1551 C.3     1  UNL1        0.0761
     18 N          17.5714   37.1924    9.1800 N.3     1  UNL1       -0.2971
     19 H          17.5097   36.2136    8.8997 H       1  UNL1        0.1233
     20 C           6.9357   41.4580    8.3874 C.ar    1  UNL1       -0.0049
     21 C           6.7821   42.1490    7.1816 C.ar    1  UNL1       -0.0028
     22 C           7.8946   42.4019    6.3753 C.ar    1  UNL1        0.0010
     23 C           9.1599   41.9603    6.7724 C.ar    1  UNL1        0.0147
     24 C           9.3216   41.2622    7.9789 C.ar    1  UNL1        0.0503
     25 C           8.2023   41.0120    8.7794 C.ar    1  UNL1        0.0118
     26 C           5.7470   41.1648    9.2377 C.3     1  UNL1        0.0993
     27 C           6.9236   41.7562   11.1576 C.3     1  UNL1        0.0900
     28 N           5.7251   42.0491   10.3932 N.3     1  UNL1       -0.2656
     29 C           4.5991   41.6504   11.2222 C.3     1  UNL1        0.1045
     30 C           3.9698   40.3904   10.6596 C.3     1  UNL1        0.1544
     31 O           3.7802   39.4670   11.6863 O.3     1  UNL1       -0.3805
     32 H           4.6361   39.2494   12.0875 H       1  UNL1        0.2105
@<TRIPOS>BOND
     1    27    28    1
     2    29    28    1
     3    29    30    1
     4    30    31    1
     5    26    28    1
     6    26    20    1
     7    21    22   ar
     8    23    24   ar
     9    24     2    1
    10     1     5    1
    11     6     8   ar
    12     7     6    1
    13     9    11   ar
    14    10    11   ar
    15    10     5   ar
    16    13     9    1
    17    13    14    1
    18    14    15    1
    19    15    16    1
    20    16    18    1
    21    17    18    1
    22    17    13    1
    23    25    20   ar
    24     2     1   am
    25    20    21   ar
    26    22    23   ar
    27    24    25   ar
    28     1     3    2
    29     5     6   ar
    30     8     9   ar
    31    10    12    2
    32     2     4    1
    33    18    19    1
    34    31    32    1
@<TRIPOS>MOLECULE
Molport-051-825-208 MCULE-6404919247 MCULE-9761543365
 32 34 0 0 0
SMALL
GASTEIGER

@<TRIPOS>ATOM
      1 C          11.9498   41.1389    9.9251 C.2     1  UNL1        0.2555
      2 N          10.8417   40.6599   10.7019 N.am    1  UNL1       -0.2802
      3 O          11.8047   42.1240    9.1511 O.2     1  UNL1       -0.2696
      4 H          11.0274   39.9172   11.3208 H       1  UNL1        0.1552
      5 C          13.2832   40.4928   10.0516 C.ar    1  UNL1        0.1256
      6 C          14.2851   40.6492    9.0677 C.ar    1  UNL1       -0.0085
      7 C          14.1074   41.5139    7.8648 C.3     1  UNL1        0.0315
      8 C          15.5160   40.0195    9.2317 C.ar    1  UNL1        0.0292
      9 C          15.7372   39.2432   10.3662 C.ar    1  UNL1        0.1268
     10 C          13.5922   39.6911   11.1744 C.ar    1  UNL1        0.3496
     11 O          14.7835   39.1101   11.2828 O.2     1  UNL1       -0.4254
     12 O          12.7407   39.5002   12.0833 O.2     1  UNL1       -0.2443
     13 C          17.0522   38.5626   10.5444 C.3     1  UNL1        0.0733
     14 C          18.1794   39.4347    9.9864 C.3     1  UNL1        0.0103
     15 C          19.4956   38.6589    9.9283 C.3     1  UNL1        0.0176
     16 C          19.3232   37.2487    9.3424 C.3     1  UNL1        0.0686
     17 C          17.0223   37.1595    9.9148 C.3     1  UNL1        0.0761
     18 N          17.9759   37.0386    8.8120 N.3     1  UNL1       -0.2971
     19 H          17.9093   36.1083    8.3992 H       1  UNL1        0.1233
     20 C           7.6996   42.2002    9.4198 C.ar    1  UNL1       -0.0049
     21 C           6.8718   42.1381   10.5449 C.ar    1  UNL1       -0.0028
     22 C           7.3489   41.5780   11.7325 C.ar    1  UNL1        0.0010
     23 C           8.6549   41.0841   11.7965 C.ar    1  UNL1        0.0147
     24 C           9.4934   41.1469   10.6731 C.ar    1  UNL1        0.0503
     25 C           9.0081   41.7105    9.4885 C.ar    1  UNL1        0.0118
     26 C           7.2018   42.8198    8.1586 C.3     1  UNL1        0.0993
     27 C           7.0218   42.6551    5.8433 C.3     1  UNL1        0.0900
     28 N           7.5012   41.9597    7.0236 N.3     1  UNL1       -0.2656
     29 C           6.6844   40.7644    7.1588 C.3     1  UNL1        0.1045
     30 C           7.4703   39.5523    6.6973 C.3     1  UNL1        0.1544
     31 O           7.0831   39.2127    5.4021 O.3     1  UNL1       -0.3805
     32 H           6.1353   39.0066    5.3916 H       1  UNL1        0.2105
@<TRIPOS>BOND
     1    27    28    1
     2    29    28    1
     3    29    30    1
     4    30    31    1
     5    26    28    1
     6    26    20    1
     7    21    22   ar
     8    23    24   ar
     9    24     2    1
    10     1     5    1
    11     6     8   ar
    12     7     6    1
    13     9    11   ar
    14    10    11   ar
    15    10     5   ar
    16    13     9    1
    17    13    14    1
    18    14    15    1
    19    15    16    1
    20    16    18    1
    21    17    18    1
    22    17    13    1
    23    25    20   ar
    24     2     1   am
    25    20    21   ar
    26    22    23   ar
    27    24    25   ar
    28     1     3    2
    29     5     6   ar
    30     8     9   ar
    31    10    12    2
    32     2     4    1
    33    18    19    1
    34    31    32    1
@<TRIPOS>MOLECULE
Molport-051-825-208 MCULE-6404919247 MCULE-9761543365
 32 34 0 0 0
SMALL
GASTEIGER

@<TRIPOS>ATOM
      1 C          11.4938   41.8493    8.8088 C.2     1  UNL1        0.2555
      2 N          10.3906   41.1790    8.1808 N.am    1  UNL1       -0.2802
      3 O          11.4852   43.1037    8.9377 O.2     1  UNL1       -0.2696
      4 H          10.4339   40.1960    8.1495 H       1  UNL1        0.1552
      5 C          12.6404   41.0632    9.3370 C.ar    1  UNL1        0.1256
      6 C          12.5803   40.4006   10.5835 C.ar    1  UNL1       -0.0085
      7 C          11.3538   40.3882   11.4331 C.3     1  UNL1        0.0315
      8 C          13.6834   39.6807   11.0348 C.ar    1  UNL1        0.0292
      9 C          14.8301   39.6281   10.2470 C.ar    1  UNL1        0.1268
     10 C          13.8412   40.9547    8.5987 C.ar    1  UNL1        0.3496
     11 O          14.8669   40.2555    9.0754 O.2     1  UNL1       -0.4254
     12 O          13.9666   41.5304    7.4849 O.2     1  UNL1       -0.2443
     13 C          16.0161   38.8624   10.7280 C.3     1  UNL1        0.0733
     14 C          17.2993   39.6544   10.4658 C.3     1  UNL1        0.0103
     15 C          18.5368   38.7923   10.7167 C.3     1  UNL1        0.0176
     16 C          18.4173   37.3936   10.0915 C.3     1  UNL1        0.0686
     17 C          16.0456   37.4610   10.0946 C.3     1  UNL1        0.0761
     18 N          17.2258   37.2708    9.2513 N.3     1  UNL1       -0.2971
     19 H          17.1989   36.3448    8.8246 H       1  UNL1        0.1233
     20 C           7.2038   43.0894    7.8910 C.ar    1  UNL1       -0.0049
     21 C           6.9348   42.9893    6.5226 C.ar    1  UNL1       -0.0028
     22 C           7.8129   42.2942    5.6874 C.ar    1  UNL1        0.0010
     23 C           8.9577   41.6954    6.2212 C.ar    1  UNL1        0.0147
     24 C           9.2323   41.7875    7.5942 C.ar    1  UNL1        0.0503
     25 C           8.3471   42.4841    8.4233 C.ar    1  UNL1        0.0118
     26 C           6.2560   43.8091    8.7886 C.3     1  UNL1        0.0993
     27 C           5.4857   41.6147    8.6820 C.3     1  UNL1        0.0900
     28 N           5.3252   42.8689    9.3946 N.3     1  UNL1       -0.2656
     29 C           3.9814   43.3408    9.1022 C.3     1  UNL1        0.1045
     30 C           4.0486   44.5240    8.1560 C.3     1  UNL1        0.1544
     31 O           2.7705   45.0513    7.9794 O.3     1  UNL1       -0.3805
     32 H           2.1889   44.3710    7.6054 H       1  UNL1        0.2105
@<TRIPOS>BOND
     1    27    28    1
     2    29    28    1
     3    29    30    1
     4    30    31    1
     5    26    28    1
     6    26    20    1
     7    21    22   ar
     8    23    24   ar
     9    24     2    1
    10     1     5    1
    11     6     8   ar
    12     7     6    1
    13     9    11   ar
    14    10    11   ar
    15    10     5   ar
    16    13     9    1
    17    13    14    1
    18    14    15    1
    19    15    16    1
    20    16    18    1
    21    17    18    1
    22    17    13    1
    23    25    20   ar
    24     2     1   am
    25    20    21   ar
    26    22    23   ar
    27    24    25   ar
    28     1     3    2
    29     5     6   ar
    30     8     9   ar
    31    10    12    2
    32     2     4    1
    33    18    19    1
    34    31    32    1
@<TRIPOS>MOLECULE
Molport-051-825-208 MCULE-6404919247 MCULE-9761543365
 32 34 0 0 0
SMALL
GASTEIGER

@<TRIPOS>ATOM
      1 C          12.1841   41.0737    9.9973 C.2     1  UNL1        0.2555
      2 N          11.0982   40.7126   10.8640 N.am    1  UNL1       -0.2802
      3 O          12.0419   41.9985    9.1519 O.2     1  UNL1       -0.2696
      4 H          11.2835   40.0145   11.5330 H       1  UNL1        0.1552
      5 C          13.4930   40.3770   10.1126 C.ar    1  UNL1        0.1256
      6 C          14.5111   40.5360    9.1460 C.ar    1  UNL1       -0.0085
      7 C          14.3776   41.4519    7.9757 C.3     1  UNL1        0.0315
      8 C          15.7177   39.8580    9.2984 C.ar    1  UNL1        0.0292
      9 C          15.8986   39.0315   10.4042 C.ar    1  UNL1        0.1268
     10 C          13.7610   39.5225   11.2067 C.ar    1  UNL1        0.3496
     11 O          14.9301   38.8967   11.3049 O.2     1  UNL1       -0.4254
     12 O          12.8927   39.3267   12.0986 O.2     1  UNL1       -0.2443
     13 C          17.1872   38.2992   10.5696 C.3     1  UNL1        0.0733
     14 C          18.3569   39.1783   10.1211 C.3     1  UNL1        0.0103
     15 C          19.6524   38.3699   10.0436 C.3     1  UNL1        0.0176
     16 C          19.4616   37.0170    9.3401 C.3     1  UNL1        0.0686
     17 C          17.1405   36.9525    9.8279 C.3     1  UNL1        0.0761
     18 N          18.1285   36.8911    8.7507 N.3     1  UNL1       -0.2971
     19 H          18.0506   35.9992    8.2620 H       1  UNL1        0.1233
     20 C           8.0803   42.5754    9.7191 C.ar    1  UNL1       -0.0049
     21 C           7.2006   42.3775   10.7878 C.ar    1  UNL1       -0.0028
     22 C           7.6010   41.6187   11.8904 C.ar    1  UNL1        0.0010
     23 C           8.8825   41.0615   11.9265 C.ar    1  UNL1        0.0147
     24 C           9.7728   41.2594   10.8600 C.ar    1  UNL1        0.0503
     25 C           9.3641   42.0215    9.7607 C.ar    1  UNL1        0.0118
     26 C           7.6647   43.4051    8.5526 C.3     1  UNL1        0.0993
     27 C           6.2628   43.4415    6.6943 C.3     1  UNL1        0.0900
     28 N           6.3656   42.9692    8.0628 N.3     1  UNL1       -0.2656
     29 C           5.3538   43.6845    8.8235 C.3     1  UNL1        0.1045
     30 C           4.0698   42.8781    8.8527 C.3     1  UNL1        0.1544
     31 O           2.9815   43.7301    8.6723 O.3     1  UNL1       -0.3805
     32 H           2.9654   44.3892    9.3838 H       1  UNL1        0.2105
@<TRIPOS>BOND
     1    27    28    1
     2    29    28    1
     3    29    30    1
     4    30    31    1
     5    26    28    1
     6    26    20    1
     7    21    22   ar
     8    23    24   ar
     9    24     2    1
    10     1     5    1
    11     6     8   ar
    12     7     6    1
    13     9    11   ar
    14    10    11   ar
    15    10     5   ar
    16    13     9    1
    17    13    14    1
    18    14    15    1
    19    15    16    1
    20    16    18    1
    21    17    18    1
    22    17    13    1
    23    25    20   ar
    24     2     1   am
    25    20    21   ar
    26    22    23   ar
    27    24    25   ar
    28     1     3    2
    29     5     6   ar
    30     8     9   ar
    31    10    12    2
    32     2     4    1
    33    18    19    1
    34    31    32    1
