@<TRIPOS>MOLECULE
MolPort-002-455-752 2685904 CSSS03437074035 MCULE-3982980660 PubChem-2134010 ZINC000002685904 ZINC02685904
 23 23 0 0 0
SMALL
GASTEIGER

@<TRIPOS>ATOM
      1 C          14.0125   40.8379    8.6941 C.ar    1  UNL1        0.1099
      2 C          14.9977   40.2200    9.4337 C.ar    1  UNL1        0.0154
      3 C          16.4230   40.6488    9.5290 C.3     1  UNL1        0.0342
      4 C          14.3972   39.1401   10.0550 C.ar    1  UNL1        0.0857
      5 C          13.0680   39.1685    9.6498 C.ar    1  UNL1        0.0408
      6 C          12.0061   38.2040   10.0523 C.3     1  UNL1        0.0500
      7 N          12.8294   40.2038    8.8191 N.ar    1  UNL1       -0.3451
      8 H          11.9743   40.4448    8.3948 H       1  UNL1        0.1668
      9 C          13.2047   42.6661    7.1263 C.2     1  UNL1        0.4064
     10 O          12.0226   42.2254    7.1091 O.2     1  UNL1       -0.2261
     11 N          14.2177   42.0076    7.8931 N.am    1  UNL1       -0.2368
     12 H          15.1255   42.3877    7.8682 H       1  UNL1        0.1596
     13 O          13.5463   43.8031    6.3900 O.3     1  UNL1       -0.4344
     14 C          14.6786   43.8493    5.5295 C.3     1  UNL1        0.2101
     15 C          15.8061   44.6287    6.1810 C.3     1  UNL1        0.0475
     16 C          17.1061   43.8627    6.0245 C.3     1  UNL1        0.0038
     17 C          17.3522   43.8567    8.5058 C.3     1  UNL1        0.0000
     18 C          18.0381   44.1573    7.1863 C.3     1  UNL1        0.0001
     19 C          15.0406   38.1640   10.9583 C.2     1  UNL1        0.3421
     20 O          15.3406   38.4970   12.1373 O.2     1  UNL1       -0.2449
     21 O          15.3199   36.8723   10.5017 O.3     1  UNL1       -0.4454
     22 C          15.9824   36.6237    9.2681 C.3     1  UNL1        0.2089
     23 C          15.0230   35.9933    8.2761 C.3     1  UNL1        0.0513
@<TRIPOS>BOND
     1    17    18    1
     2    18    16    1
     3    16    15    1
     4    15    14    1
     5    14    13    1
     6     9    13    1
     7     9    11   am
     8     2     4   ar
     9     3     2    1
    10     4    19    1
    11    19    21    1
    12    22    21    1
    13    22    23    1
    14     5     7   ar
    15     6     5    1
    16    11     1    1
    17     7     1   ar
    18     9    10    2
    19     1     2   ar
    20     4     5   ar
    21    19    20    2
    22    11    12    1
    23     7     8    1
@<TRIPOS>MOLECULE
MolPort-002-455-752 2685904 CSSS03437074035 MCULE-3982980660 PubChem-2134010 ZINC000002685904 ZINC02685904
 23 23 0 0 0
SMALL
GASTEIGER

@<TRIPOS>ATOM
      1 C          10.7936   41.7116    6.0785 C.ar    1  UNL1        0.1099
      2 C          10.9296   40.4197    6.5389 C.ar    1  UNL1        0.0154
      3 C          12.2139   39.7329    6.8599 C.3     1  UNL1        0.0342
      4 C           9.6493   39.9057    6.6372 C.ar    1  UNL1        0.0857
      5 C           8.8040   40.9292    6.2254 C.ar    1  UNL1        0.0408
      6 C           7.3172   40.8650    6.1529 C.3     1  UNL1        0.0500
      7 N           9.4990   42.0333    5.8838 N.ar    1  UNL1       -0.3451
      8 H           9.1381   42.8907    5.5612 H       1  UNL1        0.1668
      9 C          12.7378   43.1536    6.8490 C.2     1  UNL1        0.4064
     10 O          12.5522   42.8759    8.0657 O.2     1  UNL1       -0.2261
     11 N          11.8890   42.6025    5.8372 N.am    1  UNL1       -0.2368
     12 H          12.0721   42.8550    4.9035 H       1  UNL1        0.1596
     13 O          13.7735   44.0109    6.4693 O.3     1  UNL1       -0.4344
     14 C          14.9354   43.5557    5.7856 C.3     1  UNL1        0.2101
     15 C          16.0879   44.5187    6.0030 C.3     1  UNL1        0.0475
     16 C          17.4006   43.8000    5.7550 C.3     1  UNL1        0.0038
     17 C          17.2630   43.9883    8.2375 C.3     1  UNL1        0.0000
     18 C          18.1155   43.5337    7.0677 C.3     1  UNL1        0.0001
     19 C           9.2678   38.5508    7.0857 C.2     1  UNL1        0.3421
     20 O           8.2374   37.9965    6.6147 O.2     1  UNL1       -0.2449
     21 O          10.0490   37.8868    8.0364 O.3     1  UNL1       -0.4454
     22 C          10.3322   38.4404    9.3154 C.3     1  UNL1        0.2089
     23 C          11.4625   37.6758    9.9784 C.3     1  UNL1        0.0513
@<TRIPOS>BOND
     1    17    18    1
     2    18    16    1
     3    16    15    1
     4    15    14    1
     5    14    13    1
     6     9    13    1
     7     9    11   am
     8     2     4   ar
     9     3     2    1
    10     4    19    1
    11    19    21    1
    12    22    21    1
    13    22    23    1
    14     5     7   ar
    15     6     5    1
    16    11     1    1
    17     7     1   ar
    18     9    10    2
    19     1     2   ar
    20     4     5   ar
    21    19    20    2
    22    11    12    1
    23     7     8    1
@<TRIPOS>MOLECULE
MolPort-002-455-752 2685904 CSSS03437074035 MCULE-3982980660 PubChem-2134010 ZINC000002685904 ZINC02685904
 23 23 0 0 0
SMALL
GASTEIGER

@<TRIPOS>ATOM
      1 C          12.3949   41.5941    6.9486 C.ar    1  UNL1        0.1099
      2 C          13.4959   41.4852    7.7703 C.ar    1  UNL1        0.0154
      3 C          13.5950   40.6444    8.9981 C.3     1  UNL1        0.0342
      4 C          14.4687   42.3044    7.2268 C.ar    1  UNL1        0.0857
      5 C          13.8920   42.8676    6.0946 C.ar    1  UNL1        0.0408
      6 C          14.5450   43.8280    5.1612 C.3     1  UNL1        0.0500
      7 N          12.6260   42.4362    5.9214 N.ar    1  UNL1       -0.3451
      8 H          12.0038   42.6832    5.1995 H       1  UNL1        0.1668
      9 C          10.0329   40.9446    6.2761 C.2     1  UNL1        0.4064
     10 O          10.0683   41.6366    5.2217 O.2     1  UNL1       -0.2261
     11 N          11.1594   40.9001    7.1575 N.am    1  UNL1       -0.2368
     12 H          11.0790   40.3501    7.9701 H       1  UNL1        0.1596
     13 O           8.8883   40.2139    6.6044 O.3     1  UNL1       -0.4344
     14 C           8.0828   40.5167    7.7376 C.3     1  UNL1        0.2101
     15 C           6.9641   41.4670    7.3521 C.3     1  UNL1        0.0475
     16 C           7.3470   42.8824    7.7411 C.3     1  UNL1        0.0038
     17 C           5.3739   44.4023    7.6232 C.3     1  UNL1        0.0000
     18 C           6.5966   43.8884    6.8866 C.3     1  UNL1        0.0001
     19 C          15.8329   42.5297    7.7470 C.2     1  UNL1        0.3421
     20 O          16.4977   41.5652    8.2147 O.2     1  UNL1       -0.2449
     21 O          16.3831   43.8148    7.7236 O.3     1  UNL1       -0.4454
     22 C          17.7262   44.0648    7.3283 C.3     1  UNL1        0.2089
     23 C          17.9006   43.7700    5.8503 C.3     1  UNL1        0.0513
@<TRIPOS>BOND
     1    17    18    1
     2    18    16    1
     3    16    15    1
     4    15    14    1
     5    14    13    1
     6     9    13    1
     7     9    11   am
     8     2     4   ar
     9     3     2    1
    10     4    19    1
    11    19    21    1
    12    22    21    1
    13    22    23    1
    14     5     7   ar
    15     6     5    1
    16    11     1    1
    17     7     1   ar
    18     9    10    2
    19     1     2   ar
    20     4     5   ar
    21    19    20    2
    22    11    12    1
    23     7     8    1
@<TRIPOS>MOLECULE
MolPort-002-455-752 2685904 CSSS03437074035 MCULE-3982980660 PubChem-2134010 ZINC000002685904 ZINC02685904
 23 23 0 0 0
SMALL
GASTEIGER

@<TRIPOS>ATOM
      1 C          12.7106   41.2334    7.0973 C.ar    1  UNL1        0.1099
      2 C          13.8671   41.1785    7.8448 C.ar    1  UNL1        0.0154
      3 C          14.1461   40.2304    8.9617 C.3     1  UNL1        0.0342
      4 C          14.6965   42.1688    7.3505 C.ar    1  UNL1        0.0857
      5 C          13.9842   42.7720    6.3206 C.ar    1  UNL1        0.0408
      6 C          14.4547   43.9025    5.4717 C.3     1  UNL1        0.0500
      7 N          12.7715   42.2034    6.1630 N.ar    1  UNL1       -0.3451
      8 H          12.0789   42.4450    5.5062 H       1  UNL1        0.1668
      9 C          10.2391   40.8073    7.5010 C.2     1  UNL1        0.4064
     10 O           9.9625   42.0376    7.5426 O.2     1  UNL1       -0.2261
     11 N          11.5844   40.3689    7.2872 N.am    1  UNL1       -0.2368
     12 H          11.7485   39.3983    7.2692 H       1  UNL1        0.1596
     13 O           9.2351   39.8507    7.6699 O.3     1  UNL1       -0.4344
     14 C           8.9868   38.8220    6.7188 C.3     1  UNL1        0.2101
     15 C           8.4916   39.4172    5.4136 C.3     1  UNL1        0.0475
     16 C           9.6438   39.5098    4.4312 C.3     1  UNL1        0.0038
     17 C           9.9757   37.3017    3.3215 C.3     1  UNL1        0.0000
     18 C           9.3534   38.6795    3.1937 C.3     1  UNL1        0.0001
     19 C          16.0538   42.5094    7.8239 C.2     1  UNL1        0.3421
     20 O          16.8039   41.6095    8.2914 O.2     1  UNL1       -0.2449
     21 O          16.5030   43.8317    7.7563 O.3     1  UNL1       -0.4454
     22 C          17.7794   44.1803    7.2351 C.3     1  UNL1        0.2089
     23 C          17.8611   43.8181    5.7640 C.3     1  UNL1        0.0513
@<TRIPOS>BOND
     1    17    18    1
     2    18    16    1
     3    16    15    1
     4    15    14    1
     5    14    13    1
     6     9    13    1
     7     9    11   am
     8     2     4   ar
     9     3     2    1
    10     4    19    1
    11    19    21    1
    12    22    21    1
    13    22    23    1
    14     5     7   ar
    15     6     5    1
    16    11     1    1
    17     7     1   ar
    18     9    10    2
    19     1     2   ar
    20     4     5   ar
    21    19    20    2
    22    11    12    1
    23     7     8    1
@<TRIPOS>MOLECULE
MolPort-002-455-752 2685904 CSSS03437074035 MCULE-3982980660 PubChem-2134010 ZINC000002685904 ZINC02685904
 23 23 0 0 0
SMALL
GASTEIGER

@<TRIPOS>ATOM
      1 C          15.2997   40.7220    8.9810 C.ar    1  UNL1        0.1099
      2 C          15.6760   39.7663    9.8999 C.ar    1  UNL1        0.0154
      3 C          17.0463   39.2022   10.0686 C.3     1  UNL1        0.0342
      4 C          14.5371   39.4473   10.6169 C.ar    1  UNL1        0.0857
      5 C          13.5266   40.2382   10.0830 C.ar    1  UNL1        0.0408
      6 C          12.1029   40.2590   10.5216 C.3     1  UNL1        0.0500
      7 N          13.9885   41.0179    9.0842 N.ar    1  UNL1       -0.3451
      8 H          13.4775   41.6646    8.5457 H       1  UNL1        0.1668
      9 C          17.1618   42.3288    8.3457 C.2     1  UNL1        0.4064
     10 O          17.2885   42.7579    9.5254 O.2     1  UNL1       -0.2261
     11 N          16.1888   41.3267    8.0346 N.am    1  UNL1       -0.2368
     12 H          16.1257   41.0300    7.0980 H       1  UNL1        0.1596
     13 O          17.9669   42.8309    7.3203 O.3     1  UNL1       -0.4344
     14 C          17.8134   44.1453    6.7973 C.3     1  UNL1        0.2101
     15 C          16.8069   44.1480    5.6615 C.3     1  UNL1        0.0475
     16 C          15.5184   44.7974    6.1299 C.3     1  UNL1        0.0038
     17 C          13.6605   43.1390    6.2542 C.3     1  UNL1        0.0000
     18 C          14.3282   44.2005    5.4003 C.3     1  UNL1        0.0001
     19 C          14.4253   38.4686   11.7179 C.2     1  UNL1        0.3421
     20 O          14.6425   38.8284   12.9071 O.2     1  UNL1       -0.2449
     21 O          14.0826   37.1423   11.4378 O.3     1  UNL1       -0.4454
     22 C          12.8584   36.7852   10.8082 C.3     1  UNL1        0.2089
     23 C          12.9570   35.3875   10.2264 C.3     1  UNL1        0.0513
@<TRIPOS>BOND
     1    17    18    1
     2    18    16    1
     3    16    15    1
     4    15    14    1
     5    14    13    1
     6     9    13    1
     7     9    11   am
     8     2     4   ar
     9     3     2    1
    10     4    19    1
    11    19    21    1
    12    22    21    1
    13    22    23    1
    14     5     7   ar
    15     6     5    1
    16    11     1    1
    17     7     1   ar
    18     9    10    2
    19     1     2   ar
    20     4     5   ar
    21    19    20    2
    22    11    12    1
    23     7     8    1
@<TRIPOS>MOLECULE
MolPort-002-455-752 2685904 CSSS03437074035 MCULE-3982980660 PubChem-2134010 ZINC000002685904 ZINC02685904
 23 23 0 0 0
SMALL
GASTEIGER

@<TRIPOS>ATOM
      1 C           5.2368   41.1736    9.3765 C.ar    1  UNL1        0.1099
      2 C           6.5257   41.3573    9.8284 C.ar    1  UNL1        0.0154
      3 C           6.9309   41.6360   11.2364 C.3     1  UNL1        0.0342
      4 C           7.3466   41.2317    8.7224 C.ar    1  UNL1        0.0857
      5 C           6.4956   40.9766    7.6535 C.ar    1  UNL1        0.0408
      6 C           6.9043   40.7638    6.2366 C.3     1  UNL1        0.0500
      7 N           5.2068   40.9402    8.0491 N.ar    1  UNL1       -0.3451
      8 H           4.4139   40.7779    7.4885 H       1  UNL1        0.1668
      9 C           3.0172   42.1813   10.0914 C.2     1  UNL1        0.4064
     10 O           3.0607   43.0797    9.2065 O.2     1  UNL1       -0.2261
     11 N           4.0736   41.2235   10.2110 N.am    1  UNL1       -0.2368
     12 H           3.9949   40.5467   10.9217 H       1  UNL1        0.1596
     13 O           1.9375   42.1109   10.9751 O.3     1  UNL1       -0.4344
     14 C           2.0964   42.1692   12.3879 C.3     1  UNL1        0.2101
     15 C           0.8731   42.7950   13.0320 C.3     1  UNL1        0.0475
     16 C           0.5898   42.1062   14.3536 C.3     1  UNL1        0.0038
     17 C          -1.5061   41.9373   15.6937 C.3     1  UNL1        0.0000
     18 C          -0.8335   41.5786   14.3819 C.3     1  UNL1        0.0001
     19 C           8.8191   41.3472    8.6909 C.2     1  UNL1        0.3421
     20 O           9.3602   42.4612    8.4520 O.2     1  UNL1       -0.2449
     21 O           9.6107   40.2182    8.9224 O.3     1  UNL1       -0.4454
     22 C          10.2042   39.4709    7.8679 C.3     1  UNL1        0.2089
     23 C           9.3279   38.2857    7.5084 C.3     1  UNL1        0.0513
@<TRIPOS>BOND
     1    17    18    1
     2    18    16    1
     3    16    15    1
     4    15    14    1
     5    14    13    1
     6     9    13    1
     7     9    11   am
     8     2     4   ar
     9     3     2    1
    10     4    19    1
    11    19    21    1
    12    22    21    1
    13    22    23    1
    14     5     7   ar
    15     6     5    1
    16    11     1    1
    17     7     1   ar
    18     9    10    2
    19     1     2   ar
    20     4     5   ar
    21    19    20    2
    22    11    12    1
    23     7     8    1
@<TRIPOS>MOLECULE
MolPort-002-455-752 2685904 CSSS03437074035 MCULE-3982980660 PubChem-2134010 ZINC000002685904 ZINC02685904
 23 23 0 0 0
SMALL
GASTEIGER

@<TRIPOS>ATOM
      1 C          12.9485   41.4361    7.4794 C.ar    1  UNL1        0.1099
      2 C          14.0638   42.1924    7.1905 C.ar    1  UNL1        0.0154
      3 C          14.1473   43.2803    6.1737 C.3     1  UNL1        0.0342
      4 C          15.0683   41.7376    8.0253 C.ar    1  UNL1        0.0857
      5 C          14.4948   40.7205    8.7791 C.ar    1  UNL1        0.0408
      6 C          15.1779   39.9119    9.8276 C.3     1  UNL1        0.0500
      7 N          13.2006   40.5337    8.4487 N.ar    1  UNL1       -0.3451
      8 H          12.5742   39.8787    8.8331 H       1  UNL1        0.1668
      9 C          10.4255   41.7306    7.5068 C.2     1  UNL1        0.4064
     10 O          10.3684   41.7214    8.7672 O.2     1  UNL1       -0.2261
     11 N          11.6796   41.5885    6.8324 N.am    1  UNL1       -0.2368
     12 H          11.6696   41.5961    5.8480 H       1  UNL1        0.1596
     13 O           9.2618   41.8735    6.7471 O.3     1  UNL1       -0.4344
     14 C           8.0174   42.2652    7.3151 C.3     1  UNL1        0.2101
     15 C           7.1351   42.9094    6.2618 C.3     1  UNL1        0.0475
     16 C           6.3360   44.0347    6.8914 C.3     1  UNL1        0.0038
     17 C           4.8153   43.6096    8.8213 C.3     1  UNL1        0.0000
     18 C           6.2520   43.8479    8.3958 C.3     1  UNL1        0.0001
     19 C          16.4583   42.2332    8.0949 C.2     1  UNL1        0.3421
     20 O          17.4095   41.4233    8.2687 O.2     1  UNL1       -0.2449
     21 O          16.7161   43.6019    7.9720 O.3     1  UNL1       -0.4454
     22 C          17.8205   44.1089    7.2331 C.3     1  UNL1        0.2089
     23 C          17.6234   43.8480    5.7516 C.3     1  UNL1        0.0513
@<TRIPOS>BOND
     1    17    18    1
     2    18    16    1
     3    16    15    1
     4    15    14    1
     5    14    13    1
     6     9    13    1
     7     9    11   am
     8     2     4   ar
     9     3     2    1
    10     4    19    1
    11    19    21    1
    12    22    21    1
    13    22    23    1
    14     5     7   ar
    15     6     5    1
    16    11     1    1
    17     7     1   ar
    18     9    10    2
    19     1     2   ar
    20     4     5   ar
    21    19    20    2
    22    11    12    1
    23     7     8    1
@<TRIPOS>MOLECULE
MolPort-002-455-752 2685904 CSSS03437074035 MCULE-3982980660 PubChem-2134010 ZINC000002685904 ZINC02685904
 23 23 0 0 0
SMALL
GASTEIGER

@<TRIPOS>ATOM
      1 C          13.1468   40.9170    7.7823 C.ar    1  UNL1        0.1099
      2 C          14.4025   41.0933    8.3221 C.ar    1  UNL1        0.0154
      3 C          14.9768   40.3391    9.4735 C.3     1  UNL1        0.0342
      4 C          15.0043   42.0975    7.5857 C.ar    1  UNL1        0.0857
      5 C          14.0658   42.4742    6.6323 C.ar    1  UNL1        0.0408
      6 C          14.2422   43.5288    5.5946 C.3     1  UNL1        0.0500
      7 N          12.9305   41.7555    6.7491 N.ar    1  UNL1       -0.3451
      8 H          12.1180   41.8278    6.1979 H       1  UNL1        0.1668
      9 C          11.3737   40.1275    9.4212 C.2     1  UNL1        0.4064
     10 O          11.4632   41.1693   10.1273 O.2     1  UNL1       -0.2261
     11 N          12.1902   39.9626    8.2576 N.am    1  UNL1       -0.2368
     12 H          12.0865   39.1289    7.7443 H       1  UNL1        0.1596
     13 O          10.4784   39.1127    9.7683 O.3     1  UNL1       -0.4344
     14 C          10.6003   37.7814    9.2810 C.3     1  UNL1        0.2101
     15 C          12.0210   37.2799    9.4629 C.3     1  UNL1        0.0475
     16 C          12.0282   36.1308   10.4532 C.3     1  UNL1        0.0038
     17 C          14.1585   35.4439    9.3542 C.3     1  UNL1        0.0000
     18 C          13.4453   35.6350   10.6797 C.3     1  UNL1        0.0001
     19 C          16.3608   42.6499    7.7786 C.2     1  UNL1        0.3421
     20 O          17.3359   41.8749    7.9770 O.2     1  UNL1       -0.2449
     21 O          16.5600   44.0334    7.7450 O.3     1  UNL1       -0.4454
     22 C          16.9819   44.7172    6.5715 C.3     1  UNL1        0.2089
     23 C          17.7597   43.7778    5.6691 C.3     1  UNL1        0.0513
@<TRIPOS>BOND
     1    17    18    1
     2    18    16    1
     3    16    15    1
     4    15    14    1
     5    14    13    1
     6     9    13    1
     7     9    11   am
     8     2     4   ar
     9     3     2    1
    10     4    19    1
    11    19    21    1
    12    22    21    1
    13    22    23    1
    14     5     7   ar
    15     6     5    1
    16    11     1    1
    17     7     1   ar
    18     9    10    2
    19     1     2   ar
    20     4     5   ar
    21    19    20    2
    22    11    12    1
    23     7     8    1
@<TRIPOS>MOLECULE
MolPort-002-455-752 2685904 CSSS03437074035 MCULE-3982980660 PubChem-2134010 ZINC000002685904 ZINC02685904
 23 23 0 0 0
SMALL
GASTEIGER

@<TRIPOS>ATOM
      1 C           6.9384   41.4086   10.6604 C.ar    1  UNL1        0.1099
      2 C           6.2391   42.1903    9.7665 C.ar    1  UNL1        0.0154
      3 C           6.8231   42.9639    8.6329 C.3     1  UNL1        0.0342
      4 C           4.9089   42.1078   10.1362 C.ar    1  UNL1        0.0857
      5 C           4.8815   41.2711   11.2456 C.ar    1  UNL1        0.0408
      6 C           3.6694   40.8697   12.0135 C.3     1  UNL1        0.0500
      7 N           6.1187   40.8420   11.5685 N.ar    1  UNL1       -0.3451
      8 H           6.3694   40.2433   12.3087 H       1  UNL1        0.1668
      9 C           9.2021   41.1477   11.7833 C.2     1  UNL1        0.4064
     10 O           8.7175   41.2589   12.9429 O.2     1  UNL1       -0.2261
     11 N           8.3581   41.2200   10.6300 N.am    1  UNL1       -0.2368
     12 H           8.7861   41.1334    9.7476 H       1  UNL1        0.1596
     13 O          10.5748   40.9582   11.6057 O.3     1  UNL1       -0.4344
     14 C          11.1080   40.0927   10.6101 C.3     1  UNL1        0.2101
     15 C          12.5706   40.4115   10.3609 C.3     1  UNL1        0.0475
     16 C          12.7006   41.2240    9.0865 C.3     1  UNL1        0.0038
     17 C          14.4029   41.9826    7.4298 C.3     1  UNL1        0.0000
     18 C          13.9757   40.8542    8.3497 C.3     1  UNL1        0.0001
     19 C           3.7626   42.7737    9.4843 C.2     1  UNL1        0.3421
     20 O           2.7636   42.0963    9.1180 O.2     1  UNL1       -0.2449
     21 O           3.7896   44.1552    9.2708 O.3     1  UNL1       -0.4454
     22 C           3.3824   44.7476    8.0436 C.3     1  UNL1        0.2089
     23 C           4.5912   45.2583    7.2822 C.3     1  UNL1        0.0513
@<TRIPOS>BOND
     1    17    18    1
     2    18    16    1
     3    16    15    1
     4    15    14    1
     5    14    13    1
     6     9    13    1
     7     9    11   am
     8     2     4   ar
     9     3     2    1
    10     4    19    1
    11    19    21    1
    12    22    21    1
    13    22    23    1
    14     5     7   ar
    15     6     5    1
    16    11     1    1
    17     7     1   ar
    18     9    10    2
    19     1     2   ar
    20     4     5   ar
    21    19    20    2
    22    11    12    1
    23     7     8    1
@<TRIPOS>MOLECULE
MolPort-002-455-752 2685904 CSSS03437074035 MCULE-3982980660 PubChem-2134010 ZINC000002685904 ZINC02685904
 23 23 0 0 0
SMALL
GASTEIGER

@<TRIPOS>ATOM
      1 C           9.4896   40.9946    9.3640 C.ar    1  UNL1        0.1099
      2 C          10.4514   40.7655   10.3241 C.ar    1  UNL1        0.0154
      3 C          10.3262   41.0623   11.7803 C.3     1  UNL1        0.0342
      4 C          11.5350   40.2144    9.6646 C.ar    1  UNL1        0.0857
      5 C          11.1606   40.1418    8.3281 C.ar    1  UNL1        0.0408
      6 C          11.9930   39.6160    7.2099 C.3     1  UNL1        0.0500
      7 N           9.9124   40.6170    8.1408 N.ar    1  UNL1       -0.3451
      8 H           9.4162   40.6756    7.2925 H       1  UNL1        0.1668
      9 C           7.5827   42.5942    8.8563 C.2     1  UNL1        0.4064
     10 O           8.1706   43.0872    7.8547 O.2     1  UNL1       -0.2261
     11 N           8.2016   41.5620    9.6304 N.am    1  UNL1       -0.2368
     12 H           7.7039   41.2151   10.4057 H       1  UNL1        0.1596
     13 O           6.3176   43.0536    9.2307 O.3     1  UNL1       -0.4344
     14 C           5.1158   42.4058    8.8298 C.3     1  UNL1        0.2101
     15 C           3.9176   43.0538    9.4988 C.3     1  UNL1        0.0475
     16 C           3.0162   41.9774   10.0733 C.3     1  UNL1        0.0038
     17 C           4.0539   40.2354   11.5246 C.3     1  UNL1        0.0000
     18 C           3.4456   41.6248   11.4863 C.3     1  UNL1        0.0001
     19 C          12.8192   39.7944   10.2621 C.2     1  UNL1        0.3421
     20 O          12.8942   38.7081   10.8988 O.2     1  UNL1       -0.2449
     21 O          13.9495   40.6057   10.1237 O.3     1  UNL1       -0.4454
     22 C          14.9845   40.3229    9.1902 C.3     1  UNL1        0.2089
     23 C          16.1995   39.7662    9.9082 C.3     1  UNL1        0.0513
@<TRIPOS>BOND
     1    17    18    1
     2    18    16    1
     3    16    15    1
     4    15    14    1
     5    14    13    1
     6     9    13    1
     7     9    11   am
     8     2     4   ar
     9     3     2    1
    10     4    19    1
    11    19    21    1
    12    22    21    1
    13    22    23    1
    14     5     7   ar
    15     6     5    1
    16    11     1    1
    17     7     1   ar
    18     9    10    2
    19     1     2   ar
    20     4     5   ar
    21    19    20    2
    22    11    12    1
    23     7     8    1
