@<TRIPOS>MOLECULE
Molport-051-790-868 LN03269416 MCULE-8334916970 PubChem-127263975
 19 19 0 0 0
SMALL
GASTEIGER

@<TRIPOS>ATOM
      1 C          15.6422   43.9707    6.0207 C.ar    1  UNL1        0.2808
      2 C          13.6746   43.3518    6.2705 C.ar    1  UNL1        0.3237
      3 O          13.6615   44.3959    5.4798 O.2     1  UNL1       -0.3159
      4 N          14.8767   44.8139    5.2986 N.ar    1  UNL1       -0.0471
      5 N          14.9208   43.0235    6.6569 N.ar    1  UNL1       -0.1677
      6 C          12.4859   41.6906    7.7622 C.2     1  UNL1        0.4085
      7 O          13.5334   41.4435    8.4208 O.2     1  UNL1       -0.2260
      8 N          12.5111   42.6319    6.6857 N.am    1  UNL1       -0.2031
      9 H          11.6714   42.7950    6.1981 H       1  UNL1        0.1627
     10 O          11.2791   41.0488    8.0718 O.3     1  UNL1       -0.4416
     11 C          10.4910   41.3168    9.2342 C.3     1  UNL1        0.1378
     12 C          10.6909   42.7485    9.7008 C.3     1  UNL1        0.0437
     13 C          10.8443   40.3560   10.3564 C.3     1  UNL1        0.0437
     14 C           9.0306   41.1271    8.8838 C.3     1  UNL1        0.0437
     15 C          17.1015   44.0702    6.1076 C.2     1  UNL1        0.3810
     16 O          17.8062   43.8724    5.0803 O.2     1  UNL1       -0.2413
     17 O          17.6991   44.3845    7.3296 O.3     1  UNL1       -0.4432
     18 C          17.8984   42.1710    8.2276 C.3     1  UNL1        0.0513
     19 C          17.4819   43.6024    8.4944 C.3     1  UNL1        0.2090
@<TRIPOS>BOND
     1    18    19    1
     2    19    17    1
     3    15    17    1
     4    15     1    1
     5     1     5   ar
     6     2     3   ar
     7     2     8    1
     8     6    10    1
     9    11    10    1
    10    11    12    1
    11    11    13    1
    12    11    14    1
    13     4     3   ar
    14     8     6   am
    15    15    16    2
    16     1     4   ar
    17     2     5   ar
    18     6     7    2
    19     8     9    1
@<TRIPOS>MOLECULE
Molport-051-790-868 LN03269416 MCULE-8334916970 PubChem-127263975
 19 19 0 0 0
SMALL
GASTEIGER

@<TRIPOS>ATOM
      1 C          14.4777   43.3010    6.5397 C.ar    1  UNL1        0.2808
      2 C          12.7912   42.1235    6.2466 C.ar    1  UNL1        0.3237
      3 O          13.5926   41.4701    7.0506 O.2     1  UNL1       -0.3159
      4 N          14.6620   42.1753    7.2589 N.ar    1  UNL1       -0.0471
      5 N          13.3009   43.3129    5.8783 N.ar    1  UNL1       -0.1677
      6 C          10.3413   41.6108    6.6115 C.2     1  UNL1        0.4085
      7 O          10.3735   42.0184    7.8052 O.2     1  UNL1       -0.2260
      8 N          11.5195   41.6451    5.8013 N.am    1  UNL1       -0.2031
      9 H          11.4502   41.3174    4.8755 H       1  UNL1        0.1627
     10 O           9.1527   41.1173    6.0568 O.3     1  UNL1       -0.4416
     11 C           8.8001   39.7333    5.9909 C.3     1  UNL1        0.1378
     12 C           7.3017   39.5516    6.1617 C.3     1  UNL1        0.0437
     13 C           9.5391   38.9390    7.0541 C.3     1  UNL1        0.0437
     14 C           9.1953   39.1967    4.6317 C.3     1  UNL1        0.0437
     15 C          15.4498   44.3957    6.4802 C.2     1  UNL1        0.3810
     16 O          15.4170   45.2126    5.5196 O.2     1  UNL1       -0.2413
     17 O          16.4049   44.5248    7.4904 O.3     1  UNL1       -0.4432
     18 C          17.9280   42.8823    8.3437 C.3     1  UNL1        0.0513
     19 C          17.7194   44.0069    7.3510 C.3     1  UNL1        0.2090
@<TRIPOS>BOND
     1    18    19    1
     2    19    17    1
     3    15    17    1
     4    15     1    1
     5     1     5   ar
     6     2     3   ar
     7     2     8    1
     8     6    10    1
     9    11    10    1
    10    11    12    1
    11    11    13    1
    12    11    14    1
    13     4     3   ar
    14     8     6   am
    15    15    16    2
    16     1     4   ar
    17     2     5   ar
    18     6     7    2
    19     8     9    1
@<TRIPOS>MOLECULE
Molport-051-790-868 LN03269416 MCULE-8334916970 PubChem-127263975
 19 19 0 0 0
SMALL
GASTEIGER

@<TRIPOS>ATOM
      1 C          14.2522   43.1547    6.4956 C.ar    1  UNL1        0.2808
      2 C          12.5771   42.1255    7.1674 C.ar    1  UNL1        0.3237
      3 O          13.6333   41.4691    7.5785 O.2     1  UNL1       -0.3159
      4 N          14.7043   42.0826    7.1773 N.ar    1  UNL1       -0.0471
      5 N          12.9044   43.2236    6.4624 N.ar    1  UNL1       -0.1677
      6 C          10.5177   42.0357    8.6333 C.2     1  UNL1        0.4085
      7 O          11.0773   42.6841    9.5599 O.2     1  UNL1       -0.2260
      8 N          11.2260   41.7361    7.4274 N.am    1  UNL1       -0.2031
      9 H          10.7518   41.2280    6.7301 H       1  UNL1        0.1627
     10 O           9.1935   41.5968    8.7671 O.3     1  UNL1       -0.4416
     11 C           8.0453   42.3393    8.3495 C.3     1  UNL1        0.1378
     12 C           7.9512   42.3766    6.8339 C.3     1  UNL1        0.0437
     13 C           8.0925   43.7554    8.8970 C.3     1  UNL1        0.0437
     14 C           6.8055   41.6587    8.8893 C.3     1  UNL1        0.0437
     15 C          15.1283   44.1407    5.8575 C.2     1  UNL1        0.3810
     16 O          14.9410   44.4593    4.6515 O.2     1  UNL1       -0.2413
     17 O          16.1641   44.7201    6.5929 O.3     1  UNL1       -0.4432
     18 C          17.8097   43.8143    8.0819 C.3     1  UNL1        0.0513
     19 C          17.4606   44.1439    6.6455 C.3     1  UNL1        0.2090
@<TRIPOS>BOND
     1    18    19    1
     2    19    17    1
     3    15    17    1
     4    15     1    1
     5     1     5   ar
     6     2     3   ar
     7     2     8    1
     8     6    10    1
     9    11    10    1
    10    11    12    1
    11    11    13    1
    12    11    14    1
    13     4     3   ar
    14     8     6   am
    15    15    16    2
    16     1     4   ar
    17     2     5   ar
    18     6     7    2
    19     8     9    1
@<TRIPOS>MOLECULE
Molport-051-790-868 LN03269416 MCULE-8334916970 PubChem-127263975
 19 19 0 0 0
SMALL
GASTEIGER

@<TRIPOS>ATOM
      1 C           8.6689   43.5872    9.4904 C.ar    1  UNL1        0.2808
      2 C          10.2027   42.2261    9.8245 C.ar    1  UNL1        0.3237
      3 O          10.3902   43.2372   10.6356 O.2     1  UNL1       -0.3159
      4 N           9.4490   44.1127   10.4567 N.ar    1  UNL1       -0.0471
      5 N           9.1094   42.3870    9.0570 N.ar    1  UNL1       -0.1677
      6 C          12.0413   40.8698    8.7390 C.2     1  UNL1        0.4085
      7 O          12.2196   41.7286    7.8319 O.2     1  UNL1       -0.2260
      8 N          11.0499   41.0767    9.7490 N.am    1  UNL1       -0.2031
      9 H          10.9437   40.3815   10.4379 H       1  UNL1        0.1627
     10 O          12.8096   39.6983    8.7750 O.3     1  UNL1       -0.4416
     11 C          14.0322   39.5503    9.5012 C.3     1  UNL1        0.1378
     12 C          14.6849   38.2148    9.1886 C.3     1  UNL1        0.0437
     13 C          13.7871   39.6658   10.9958 C.3     1  UNL1        0.0437
     14 C          14.9798   40.6551    9.0850 C.3     1  UNL1        0.0437
     15 C           7.4707   44.2467    8.9649 C.2     1  UNL1        0.3810
     16 O           7.3027   45.4831    9.1498 O.2     1  UNL1       -0.2413
     17 O           6.5245   43.4984    8.2620 O.3     1  UNL1       -0.4432
     18 C           4.2922   44.3464    8.0528 C.3     1  UNL1        0.0513
     19 C           5.1946   43.3378    8.7326 C.3     1  UNL1        0.2090
@<TRIPOS>BOND
     1    18    19    1
     2    19    17    1
     3    15    17    1
     4    15     1    1
     5     1     5   ar
     6     2     3   ar
     7     2     8    1
     8     6    10    1
     9    11    10    1
    10    11    12    1
    11    11    13    1
    12    11    14    1
    13     4     3   ar
    14     8     6   am
    15    15    16    2
    16     1     4   ar
    17     2     5   ar
    18     6     7    2
    19     8     9    1
@<TRIPOS>MOLECULE
Molport-051-790-868 LN03269416 MCULE-8334916970 PubChem-127263975
 19 19 0 0 0
SMALL
GASTEIGER

@<TRIPOS>ATOM
      1 C          10.9490   42.6090    9.3405 C.ar    1  UNL1        0.2808
      2 C           9.0031   43.1008    9.8776 C.ar    1  UNL1        0.3237
      3 O           9.7769   44.0882   10.2542 O.2     1  UNL1       -0.3159
      4 N          11.0055   43.8179    9.9352 N.ar    1  UNL1       -0.0471
      5 N           9.6948   42.1129    9.2811 N.ar    1  UNL1       -0.1677
      6 C           6.6256   43.3460    9.0496 C.2     1  UNL1        0.4085
      7 O           7.0010   43.6613    7.8869 O.2     1  UNL1       -0.2260
      8 N           7.5867   43.0594   10.0693 N.am    1  UNL1       -0.2031
      9 H           7.2507   42.8176   10.9626 H       1  UNL1        0.1627
     10 O           5.2621   43.2706    9.3645 O.3     1  UNL1       -0.4416
     11 C           4.5719   42.0653    9.7037 C.3     1  UNL1        0.1378
     12 C           4.6789   41.7853   11.1928 C.3     1  UNL1        0.0437
     13 C           5.1258   40.8893    8.9179 C.3     1  UNL1        0.0437
     14 C           3.1087   42.2294    9.3515 C.3     1  UNL1        0.0437
     15 C          12.1222   41.9064    8.8143 C.2     1  UNL1        0.3810
     16 O          12.7596   41.1080    9.5542 O.2     1  UNL1       -0.2413
     17 O          12.5236   42.1274    7.4955 O.3     1  UNL1       -0.4432
     18 C          14.0741   43.1589    5.9862 C.3     1  UNL1        0.0513
     19 C          13.8937   42.1788    7.1267 C.3     1  UNL1        0.2090
@<TRIPOS>BOND
     1    18    19    1
     2    19    17    1
     3    15    17    1
     4    15     1    1
     5     1     5   ar
     6     2     3   ar
     7     2     8    1
     8     6    10    1
     9    11    10    1
    10    11    12    1
    11    11    13    1
    12    11    14    1
    13     4     3   ar
    14     8     6   am
    15    15    16    2
    16     1     4   ar
    17     2     5   ar
    18     6     7    2
    19     8     9    1
@<TRIPOS>MOLECULE
Molport-051-790-868 LN03269416 MCULE-8334916970 PubChem-127263975
 19 19 0 0 0
SMALL
GASTEIGER

@<TRIPOS>ATOM
      1 C          13.9004   41.5274    7.5662 C.ar    1  UNL1        0.2808
      2 C          12.0813   41.9554    6.6581 C.ar    1  UNL1        0.3237
      3 O          13.0047   42.6418    6.0324 O.2     1  UNL1       -0.3159
      4 N          14.1601   42.4009    6.5721 N.ar    1  UNL1       -0.0471
      5 N          12.5904   41.2146    7.6592 N.ar    1  UNL1       -0.1677
      6 C           9.9379   40.8310    5.9235 C.2     1  UNL1        0.4085
      7 O          10.4929   39.7015    5.8321 O.2     1  UNL1       -0.2260
      8 N          10.6896   41.9777    6.3303 N.am    1  UNL1       -0.2031
      9 H          10.2176   42.8397    6.3885 H       1  UNL1        0.1627
     10 O           8.5764   40.9841    5.6287 O.3     1  UNL1       -0.4416
     11 C           7.5313   41.0063    6.6041 C.3     1  UNL1        0.1378
     12 C           6.8347   42.3562    6.6149 C.3     1  UNL1        0.0437
     13 C           8.0799   40.6993    7.9869 C.3     1  UNL1        0.0437
     14 C           6.5126   39.9450    6.2470 C.3     1  UNL1        0.0437
     15 C          14.9284   40.9756    8.4525 C.2     1  UNL1        0.3810
     16 O          16.0269   41.5798    8.5919 O.2     1  UNL1       -0.2413
     17 O          14.6811   39.7838    9.1364 O.3     1  UNL1       -0.4432
     18 C          13.2486   39.6897   11.0560 C.3     1  UNL1        0.0513
     19 C          14.6774   39.7193   10.5547 C.3     1  UNL1        0.2090
@<TRIPOS>BOND
     1    18    19    1
     2    19    17    1
     3    15    17    1
     4    15     1    1
     5     1     5   ar
     6     2     3   ar
     7     2     8    1
     8     6    10    1
     9    11    10    1
    10    11    12    1
    11    11    13    1
    12    11    14    1
    13     4     3   ar
    14     8     6   am
    15    15    16    2
    16     1     4   ar
    17     2     5   ar
    18     6     7    2
    19     8     9    1
@<TRIPOS>MOLECULE
Molport-051-790-868 LN03269416 MCULE-8334916970 PubChem-127263975
 19 19 0 0 0
SMALL
GASTEIGER

@<TRIPOS>ATOM
      1 C          14.9946   42.0874    7.7826 C.ar    1  UNL1        0.2808
      2 C          14.5698   40.4766    9.0243 C.ar    1  UNL1        0.3237
      3 O          15.8489   40.7346    9.1379 O.2     1  UNL1       -0.3159
      4 N          16.1550   41.7385    8.3745 N.ar    1  UNL1       -0.0471
      5 N          13.9579   41.3121    8.1655 N.ar    1  UNL1       -0.1677
      6 C          12.9307   38.5528    9.1248 C.2     1  UNL1        0.4085
      7 O          12.6372   38.6622    7.9026 O.2     1  UNL1       -0.2260
      8 N          13.8859   39.4334    9.7231 N.am    1  UNL1       -0.2031
      9 H          14.0856   39.3132   10.6796 H       1  UNL1        0.1627
     10 O          12.3279   37.5680    9.9191 O.3     1  UNL1       -0.4416
     11 C          12.9942   36.4051   10.4169 C.3     1  UNL1        0.1378
     12 C          13.8018   36.7388   11.6594 C.3     1  UNL1        0.0437
     13 C          13.9044   35.8115    9.3556 C.3     1  UNL1        0.0437
     14 C          11.9524   35.3709   10.7868 C.3     1  UNL1        0.0437
     15 C          14.8698   43.1897    6.8253 C.2     1  UNL1        0.3810
     16 O          14.0712   43.0898    5.8540 O.2     1  UNL1       -0.2413
     17 O          15.6373   44.3429    6.9985 O.3     1  UNL1       -0.4432
     18 C          17.6816   43.9952    5.7962 C.3     1  UNL1        0.0513
     19 C          16.4526   44.8648    5.9599 C.3     1  UNL1        0.2090
@<TRIPOS>BOND
     1    18    19    1
     2    19    17    1
     3    15    17    1
     4    15     1    1
     5     1     5   ar
     6     2     3   ar
     7     2     8    1
     8     6    10    1
     9    11    10    1
    10    11    12    1
    11    11    13    1
    12    11    14    1
    13     4     3   ar
    14     8     6   am
    15    15    16    2
    16     1     4   ar
    17     2     5   ar
    18     6     7    2
    19     8     9    1
@<TRIPOS>MOLECULE
Molport-051-790-868 LN03269416 MCULE-8334916970 PubChem-127263975
 19 19 0 0 0
SMALL
GASTEIGER

@<TRIPOS>ATOM
      1 C          13.5368   41.5855    7.5714 C.ar    1  UNL1        0.2808
      2 C          11.4799   41.6090    7.2798 C.ar    1  UNL1        0.3237
      3 O          11.8022   40.4161    7.7141 O.2     1  UNL1       -0.3159
      4 N          13.0841   40.3609    7.9090 N.ar    1  UNL1       -0.0471
      5 N          12.5517   42.4140    7.1646 N.ar    1  UNL1       -0.1677
      6 C           8.9992   41.7345    7.7582 C.2     1  UNL1        0.4085
      7 O           9.1116   41.0693    8.8244 O.2     1  UNL1       -0.2260
      8 N          10.1499   42.0256    6.9601 N.am    1  UNL1       -0.2031
      9 H          10.0174   42.5475    6.1359 H       1  UNL1        0.1627
     10 O           7.7470   42.2006    7.3353 O.3     1  UNL1       -0.4416
     11 C           6.9563   43.1600    8.0412 C.3     1  UNL1        0.1378
     12 C           5.9990   42.4690    8.9969 C.3     1  UNL1        0.0437
     13 C           6.1760   44.0312    7.0719 C.3     1  UNL1        0.0437
     14 C           7.8788   44.0491    8.8476 C.3     1  UNL1        0.0437
     15 C          14.9472   41.9774    7.6376 C.2     1  UNL1        0.3810
     16 O          15.7487   41.3179    8.3543 O.2     1  UNL1       -0.2413
     17 O          15.3912   43.0793    6.9043 O.3     1  UNL1       -0.4432
     18 C          17.6609   43.7730    6.5678 C.3     1  UNL1        0.0513
     19 C          16.4028   43.9475    7.3927 C.3     1  UNL1        0.2090
@<TRIPOS>BOND
     1    18    19    1
     2    19    17    1
     3    15    17    1
     4    15     1    1
     5     1     5   ar
     6     2     3   ar
     7     2     8    1
     8     6    10    1
     9    11    10    1
    10    11    12    1
    11    11    13    1
    12    11    14    1
    13     4     3   ar
    14     8     6   am
    15    15    16    2
    16     1     4   ar
    17     2     5   ar
    18     6     7    2
    19     8     9    1
@<TRIPOS>MOLECULE
Molport-051-790-868 LN03269416 MCULE-8334916970 PubChem-127263975
 19 19 0 0 0
SMALL
GASTEIGER

@<TRIPOS>ATOM
      1 C          13.7756   42.1868    7.3543 C.ar    1  UNL1        0.2808
      2 C          12.0730   41.4007    8.2488 C.ar    1  UNL1        0.3237
      3 O          13.0271   40.5115    8.3692 O.2     1  UNL1       -0.3159
      4 N          14.1115   40.9668    7.8205 N.ar    1  UNL1       -0.0471
      5 N          12.4878   42.5061    7.6036 N.ar    1  UNL1       -0.1677
      6 C          10.4139   40.8898   10.0885 C.2     1  UNL1        0.4085
      7 O          11.3262   40.7100   10.9415 O.2     1  UNL1       -0.2260
      8 N          10.7402   41.2343    8.7392 N.am    1  UNL1       -0.2031
      9 H           9.9978   41.3656    8.1061 H       1  UNL1        0.1627
     10 O           9.0654   40.7557   10.4454 O.3     1  UNL1       -0.4416
     11 C           8.3382   41.6948   11.2415 C.3     1  UNL1        0.1378
     12 C           8.5299   41.4077   12.7207 C.3     1  UNL1        0.0437
     13 C           6.8590   41.6592   10.8979 C.3     1  UNL1        0.0437
     14 C           8.8634   43.0847   10.9518 C.3     1  UNL1        0.0437
     15 C          14.7069   43.0730    6.6513 C.2     1  UNL1        0.3810
     16 O          14.4638   43.4247    5.4647 O.2     1  UNL1       -0.2413
     17 O          15.8569   43.5213    7.3039 O.3     1  UNL1       -0.4432
     18 C          18.1782   44.1071    7.4228 C.3     1  UNL1        0.0513
     19 C          16.9024   44.1859    6.6105 C.3     1  UNL1        0.2090
@<TRIPOS>BOND
     1    18    19    1
     2    19    17    1
     3    15    17    1
     4    15     1    1
     5     1     5   ar
     6     2     3   ar
     7     2     8    1
     8     6    10    1
     9    11    10    1
    10    11    12    1
    11    11    13    1
    12    11    14    1
    13     4     3   ar
    14     8     6   am
    15    15    16    2
    16     1     4   ar
    17     2     5   ar
    18     6     7    2
    19     8     9    1
@<TRIPOS>MOLECULE
Molport-051-790-868 LN03269416 MCULE-8334916970 PubChem-127263975
 19 19 0 0 0
SMALL
GASTEIGER

@<TRIPOS>ATOM
      1 C          10.4327   41.7606    9.1822 C.ar    1  UNL1        0.2808
      2 C          12.2391   41.4868    8.1930 C.ar    1  UNL1        0.3237
      3 O          11.4975   40.4334    7.9569 O.2     1  UNL1       -0.3159
      4 N          10.3562   40.5666    8.5601 N.ar    1  UNL1       -0.0471
      5 N          11.6130   42.3829    8.9772 N.ar    1  UNL1       -0.1677
      6 C          13.9090   42.6369    6.6806 C.2     1  UNL1        0.4085
      7 O          13.0262   43.3843    6.1766 O.2     1  UNL1       -0.2260
      8 N          13.5619   41.6799    7.6853 N.am    1  UNL1       -0.2031
      9 H          14.2815   41.1167    8.0518 H       1  UNL1        0.1627
     10 O          15.2447   42.7291    6.2667 O.3     1  UNL1       -0.4416
     11 C          16.0629   43.8922    6.4150 C.3     1  UNL1        0.1378
     12 C          15.2815   45.1472    6.0663 C.3     1  UNL1        0.0437
     13 C          17.2990   43.7953    5.5374 C.3     1  UNL1        0.0437
     14 C          16.5076   43.9909    7.8586 C.3     1  UNL1        0.0437
     15 C           9.3517   42.3244    9.9949 C.2     1  UNL1        0.3810
     16 O           9.5746   42.6595   11.1903 O.2     1  UNL1       -0.2413
     17 O           8.0824   42.4865    9.4363 O.3     1  UNL1       -0.4432
     18 C           8.0920   44.8677    9.1620 C.3     1  UNL1        0.0513
     19 C           7.7944   43.5299    8.5176 C.3     1  UNL1        0.2090
@<TRIPOS>BOND
     1    18    19    1
     2    19    17    1
     3    15    17    1
     4    15     1    1
     5     1     5   ar
     6     2     3   ar
     7     2     8    1
     8     6    10    1
     9    11    10    1
    10    11    12    1
    11    11    13    1
    12    11    14    1
    13     4     3   ar
    14     8     6   am
    15    15    16    2
    16     1     4   ar
    17     2     5   ar
    18     6     7    2
    19     8     9    1
