@<TRIPOS>MOLECULE
MolPort-003-159-980 5266307 CSSS03437068660 MCULE-5115556212 PubChem-18582437 ZINC000005266307 ZINC05266307
 30 33 0 0 0
SMALL
GASTEIGER

@<TRIPOS>ATOM
      1 C           9.2100   42.3145    7.6848 C.2     1  UNL1        0.3078
      2 C          10.9915   41.9301    5.9577 C.3     1  UNL1        0.1165
      3 C          12.3915   41.3380    5.8159 C.3     1  UNL1        0.1154
      4 C          12.8248   41.9157    8.2431 C.3     1  UNL1        0.1154
      5 C          11.4125   41.3486    8.3954 C.3     1  UNL1        0.1165
      6 C          14.5024   42.5268    6.4387 C.2     1  UNL1        0.2839
      7 O           8.4575   42.7822    6.7874 O.2     1  UNL1       -0.2522
      8 O          14.6895   42.7870    5.2189 O.2     1  UNL1       -0.2666
      9 N           8.7611   42.2594    9.0452 N.am    1  UNL1       -0.2668
     10 N          10.5411   41.8944    7.3542 N.am    1  UNL1       -0.2605
     11 N          13.2724   41.8937    6.8443 N.am    1  UNL1       -0.2701
     12 H           9.4489   42.1355    9.7386 H       1  UNL1        0.1565
     13 C           6.8274   41.5585   10.4607 C.ar    1  UNL1        0.0909
     14 C           7.4022   42.3682    9.4877 C.ar    1  UNL1        0.0703
     15 C           6.4026   43.1883    8.9935 C.ar    1  UNL1        0.0308
     16 C           6.3906   44.1318    7.9670 C.ar    1  UNL1        0.0027
     17 C           5.1760   44.7838    7.6918 C.ar    1  UNL1        0.0001
     18 C           4.0129   44.4741    8.4283 C.ar    1  UNL1        0.0015
     19 C           4.0473   43.5001    9.4424 C.ar    1  UNL1        0.0172
     20 C           5.2669   42.8692    9.6942 C.ar    1  UNL1        0.0612
     21 N           5.5201   41.8859   10.5799 N.ar    1  UNL1       -0.3224
     22 C           4.5853   41.2691   11.5120 C.3     1  UNL1        0.1381
     23 C           3.6121   40.3585   10.7789 C.3     1  UNL1        0.1666
     24 C           2.3934   40.7527    8.9839 C.3     1  UNL1        0.1742
     25 O           2.5158   41.0956   10.3294 O.3     1  UNL1       -0.3490
     26 C          15.5789   42.8742    7.3913 C.ar    1  UNL1        0.1987
     27 C          16.2100   42.0256    8.2795 C.ar    1  UNL1        0.0455
     28 C          17.1395   42.8131    8.9357 C.ar    1  UNL1        0.0440
     29 C          17.0222   44.0843    8.4025 C.ar    1  UNL1        0.1798
     30 O          16.0849   44.0787    7.4850 O.2     1  UNL1       -0.4458
@<TRIPOS>BOND
     1    24    25    1
     2    23    25    1
     3    23    22    1
     4    22    21    1
     5    14     9    1
     6    14    15   ar
     7     1    10   am
     8     2    10    1
     9     2     3    1
    10     3    11    1
    11     4    11    1
    12     4     5    1
    13     5    10    1
    14     6    26    1
    15    26    30   ar
    16    27    28   ar
    17    29    30   ar
    18    16    17   ar
    19    18    19   ar
    20    20    21   ar
    21    20    15   ar
    22    21    13   ar
    23     9     1   am
    24    11     6   am
    25    13    14   ar
    26     1     7    2
    27     6     8    2
    28    26    27   ar
    29    28    29   ar
    30    15    16   ar
    31    17    18   ar
    32    19    20   ar
    33     9    12    1
@<TRIPOS>MOLECULE
MolPort-003-159-980 5266307 CSSS03437068660 MCULE-5115556212 PubChem-18582437 ZINC000005266307 ZINC05266307
 30 33 0 0 0
SMALL
GASTEIGER

@<TRIPOS>ATOM
      1 C          10.2366   42.1403    7.2834 C.2     1  UNL1        0.3078
      2 C          11.9483   42.5641    5.4960 C.3     1  UNL1        0.1165
      3 C          13.3852   42.2041    5.1270 C.3     1  UNL1        0.1154
      4 C          13.8975   41.9423    7.5931 C.3     1  UNL1        0.1154
      5 C          12.5512   41.2170    7.5646 C.3     1  UNL1        0.1165
      6 C          15.4139   43.3101    6.0854 C.2     1  UNL1        0.2839
      7 O           9.3980   42.8119    6.6230 O.2     1  UNL1       -0.2522
      8 O          15.5105   43.9961    5.0314 O.2     1  UNL1       -0.2666
      9 N           9.8692   41.5701    8.5463 N.am    1  UNL1       -0.2668
     10 N          11.5795   41.9993    6.7995 N.am    1  UNL1       -0.2605
     11 N          14.2684   42.4539    6.2672 N.am    1  UNL1       -0.2701
     12 H          10.6019   41.2834    9.1379 H       1  UNL1        0.1565
     13 C           7.4115   41.2870    8.2082 C.ar    1  UNL1        0.0909
     14 C           8.5321   41.3793    9.0260 C.ar    1  UNL1        0.0703
     15 C           8.0869   41.3520   10.3363 C.ar    1  UNL1        0.0308
     16 C           8.7552   41.4841   11.5529 C.ar    1  UNL1        0.0027
     17 C           7.9873   41.4396   12.7294 C.ar    1  UNL1        0.0001
     18 C           6.5867   41.2799   12.6660 C.ar    1  UNL1        0.0015
     19 C           5.9349   41.1735   11.4242 C.ar    1  UNL1        0.0172
     20 C           6.7226   41.2205   10.2726 C.ar    1  UNL1        0.0612
     21 N           6.3123   41.1814    8.9898 N.ar    1  UNL1       -0.3224
     22 C           4.9471   41.0463    8.4988 C.3     1  UNL1        0.1381
     23 C           4.0798   42.1959    8.9888 C.3     1  UNL1        0.1666
     24 C           2.6551   42.0221   10.6629 C.3     1  UNL1        0.1742
     25 O           2.8045   41.7284    9.3084 O.3     1  UNL1       -0.3490
     26 C          16.5057   43.4121    7.0774 C.ar    1  UNL1        0.1987
     27 C          17.5214   44.3475    7.1039 C.ar    1  UNL1        0.0455
     28 C          18.2769   44.0314    8.2193 C.ar    1  UNL1        0.0440
     29 C          17.6717   42.9333    8.8041 C.ar    1  UNL1        0.1798
     30 O          16.6199   42.5970    8.0964 O.2     1  UNL1       -0.4458
@<TRIPOS>BOND
     1    24    25    1
     2    23    25    1
     3    23    22    1
     4    22    21    1
     5    14     9    1
     6    14    15   ar
     7     1    10   am
     8     2    10    1
     9     2     3    1
    10     3    11    1
    11     4    11    1
    12     4     5    1
    13     5    10    1
    14     6    26    1
    15    26    30   ar
    16    27    28   ar
    17    29    30   ar
    18    16    17   ar
    19    18    19   ar
    20    20    21   ar
    21    20    15   ar
    22    21    13   ar
    23     9     1   am
    24    11     6   am
    25    13    14   ar
    26     1     7    2
    27     6     8    2
    28    26    27   ar
    29    28    29   ar
    30    15    16   ar
    31    17    18   ar
    32    19    20   ar
    33     9    12    1
@<TRIPOS>MOLECULE
MolPort-003-159-980 5266307 CSSS03437068660 MCULE-5115556212 PubChem-18582437 ZINC000005266307 ZINC05266307
 30 33 0 0 0
SMALL
GASTEIGER

@<TRIPOS>ATOM
      1 C           2.1983   42.0545   12.4314 C.2     1  UNL1        0.3078
      2 C           3.7948   40.5143   11.2554 C.3     1  UNL1        0.1165
      3 C           5.1880   40.5090   10.6310 C.3     1  UNL1        0.1154
      4 C           4.9138   42.9752   10.1259 C.3     1  UNL1        0.1154
      5 C           4.3588   42.9744   11.5511 C.3     1  UNL1        0.1165
      6 C           5.7170   41.3607    8.3394 C.2     1  UNL1        0.2839
      7 O           1.3991   41.0908   12.5832 O.2     1  UNL1       -0.2522
      8 O           5.7278   40.1700    7.9236 O.2     1  UNL1       -0.2666
      9 N           1.8511   43.3607   12.9091 N.am    1  UNL1       -0.2668
     10 N           3.4303   41.8566   11.7239 N.am    1  UNL1       -0.2605
     11 N           5.3188   41.6296    9.6986 N.am    1  UNL1       -0.2701
     12 H           2.3674   44.1194   12.5524 H       1  UNL1        0.1565
     13 C           0.7879   44.8120   14.6404 C.ar    1  UNL1        0.0909
     14 C           0.8209   43.6629   13.8586 C.ar    1  UNL1        0.0703
     15 C          -0.2440   42.8699   14.2497 C.ar    1  UNL1        0.0308
     16 C          -0.6483   41.5923   13.8647 C.ar    1  UNL1        0.0027
     17 C          -1.7828   41.0483   14.4916 C.ar    1  UNL1        0.0001
     18 C          -2.4713   41.7762   15.4853 C.ar    1  UNL1        0.0015
     19 C          -2.0274   43.0534   15.8722 C.ar    1  UNL1        0.0172
     20 C          -0.8986   43.5688   15.2325 C.ar    1  UNL1        0.0612
     21 N          -0.2780   44.7408   15.4706 N.ar    1  UNL1       -0.3224
     22 C          -0.6589   45.7671   16.4322 C.3     1  UNL1        0.1381
     23 C          -0.0955   45.4532   17.8098 C.3     1  UNL1        0.1666
     24 C           1.1461   46.1417   19.4972 C.3     1  UNL1        0.1742
     25 O           0.8771   46.3932   18.1527 O.3     1  UNL1       -0.3490
     26 C           6.1375   42.4231    7.4006 C.ar    1  UNL1        0.1987
     27 C           5.8493   43.7711    7.4863 C.ar    1  UNL1        0.0455
     28 C           6.4675   44.3447    6.3892 C.ar    1  UNL1        0.0440
     29 C           7.0975   43.3158    5.7120 C.ar    1  UNL1        0.1798
     30 O           6.8796   42.1891    6.3469 O.2     1  UNL1       -0.4458
@<TRIPOS>BOND
     1    24    25    1
     2    23    25    1
     3    23    22    1
     4    22    21    1
     5    14     9    1
     6    14    15   ar
     7     1    10   am
     8     2    10    1
     9     2     3    1
    10     3    11    1
    11     4    11    1
    12     4     5    1
    13     5    10    1
    14     6    26    1
    15    26    30   ar
    16    27    28   ar
    17    29    30   ar
    18    16    17   ar
    19    18    19   ar
    20    20    21   ar
    21    20    15   ar
    22    21    13   ar
    23     9     1   am
    24    11     6   am
    25    13    14   ar
    26     1     7    2
    27     6     8    2
    28    26    27   ar
    29    28    29   ar
    30    15    16   ar
    31    17    18   ar
    32    19    20   ar
    33     9    12    1
@<TRIPOS>MOLECULE
MolPort-003-159-980 5266307 CSSS03437068660 MCULE-5115556212 PubChem-18582437 ZINC000005266307 ZINC05266307
 30 33 0 0 0
SMALL
GASTEIGER

@<TRIPOS>ATOM
      1 C          10.3135   40.5228    9.3163 C.2     1  UNL1        0.3078
      2 C          12.5967   39.7432   10.0115 C.3     1  UNL1        0.1165
      3 C          13.9413   40.2938   10.4802 C.3     1  UNL1        0.1154
      4 C          13.4658   42.4154    9.1819 C.3     1  UNL1        0.1154
      5 C          12.0864   42.2248    9.8146 C.3     1  UNL1        0.1165
      6 C          15.6975   41.2259    8.9623 C.2     1  UNL1        0.2839
      7 O           9.9497   39.3204    9.2055 O.2     1  UNL1       -0.2522
      8 O          16.3225   40.1340    9.0514 O.2     1  UNL1       -0.2666
      9 N           9.3970   41.5835    9.0165 N.am    1  UNL1       -0.2668
     10 N          11.6659   40.8294    9.6829 N.am    1  UNL1       -0.2605
     11 N          14.3939   41.3439    9.5664 N.am    1  UNL1       -0.2701
     12 H           9.7810   42.4774    8.8657 H       1  UNL1        0.1565
     13 C           7.2842   41.2688    7.7237 C.ar    1  UNL1        0.0909
     14 C           7.9725   41.4612    8.9162 C.ar    1  UNL1        0.0703
     15 C           7.0270   41.6044    9.9170 C.ar    1  UNL1        0.0308
     16 C           7.1421   41.8894   11.2770 C.ar    1  UNL1        0.0027
     17 C           5.9571   41.9995   12.0250 C.ar    1  UNL1        0.0001
     18 C           4.6999   41.8384   11.4047 C.ar    1  UNL1        0.0015
     19 C           4.6117   41.5756   10.0258 C.ar    1  UNL1        0.0172
     20 C           5.8046   41.4710    9.3082 C.ar    1  UNL1        0.0612
     21 N           5.9567   41.2688    7.9848 N.ar    1  UNL1       -0.3224
     22 C           4.9090   41.0769    6.9905 C.3     1  UNL1        0.1381
     23 C           5.2719   39.9525    6.0326 C.3     1  UNL1        0.1666
     24 C           7.2499   39.0150    6.3007 C.3     1  UNL1        0.1742
     25 O           6.6084   40.0665    5.6479 O.3     1  UNL1       -0.3490
     26 C          16.3563   42.3418    8.2497 C.ar    1  UNL1        0.1987
     27 C          16.4795   42.4992    6.8832 C.ar    1  UNL1        0.0455
     28 C          17.1591   43.6928    6.7153 C.ar    1  UNL1        0.0440
     29 C          17.3987   44.1892    7.9843 C.ar    1  UNL1        0.1798
     30 O          16.9033   43.3578    8.8695 O.2     1  UNL1       -0.4458
@<TRIPOS>BOND
     1    24    25    1
     2    23    25    1
     3    23    22    1
     4    22    21    1
     5    14     9    1
     6    14    15   ar
     7     1    10   am
     8     2    10    1
     9     2     3    1
    10     3    11    1
    11     4    11    1
    12     4     5    1
    13     5    10    1
    14     6    26    1
    15    26    30   ar
    16    27    28   ar
    17    29    30   ar
    18    16    17   ar
    19    18    19   ar
    20    20    21   ar
    21    20    15   ar
    22    21    13   ar
    23     9     1   am
    24    11     6   am
    25    13    14   ar
    26     1     7    2
    27     6     8    2
    28    26    27   ar
    29    28    29   ar
    30    15    16   ar
    31    17    18   ar
    32    19    20   ar
    33     9    12    1
@<TRIPOS>MOLECULE
MolPort-003-159-980 5266307 CSSS03437068660 MCULE-5115556212 PubChem-18582437 ZINC000005266307 ZINC05266307
 30 33 0 0 0
SMALL
GASTEIGER

@<TRIPOS>ATOM
      1 C          11.4653   34.9320   11.6332 C.2     1  UNL1        0.3078
      2 C          13.2923   35.2477    9.9400 C.3     1  UNL1        0.1165
      3 C          14.4125   36.2197    9.5780 C.3     1  UNL1        0.1154
      4 C          13.0526   38.0898   10.6105 C.3     1  UNL1        0.1154
      5 C          12.8368   37.0306   11.6926 C.3     1  UNL1        0.1165
      6 C          14.0854   38.3486    8.3061 C.2     1  UNL1        0.2839
      7 O          11.1812   33.8238   11.1025 O.2     1  UNL1       -0.2522
      8 O          14.5052   37.7672    7.2686 O.2     1  UNL1       -0.2666
      9 N          10.7105   35.4083   12.7550 N.am    1  UNL1       -0.2668
     10 N          12.5054   35.7464   11.0742 N.am    1  UNL1       -0.2605
     11 N          13.8849   37.5833    9.5113 N.am    1  UNL1       -0.2701
     12 H          10.7874   36.3655   12.9721 H       1  UNL1        0.1565
     13 C           8.5207   34.9146   13.8483 C.ar    1  UNL1        0.0909
     14 C           9.8540   34.6179   13.5893 C.ar    1  UNL1        0.0703
     15 C          10.1839   33.5117   14.3530 C.ar    1  UNL1        0.0308
     16 C          11.3873   32.8341   14.5447 C.ar    1  UNL1        0.0027
     17 C          11.3897   31.7426   15.4305 C.ar    1  UNL1        0.0001
     18 C          10.2100   31.3650   16.1064 C.ar    1  UNL1        0.0015
     19 C           9.0151   32.0813   15.9132 C.ar    1  UNL1        0.0172
     20 C           9.0421   33.1602   15.0277 C.ar    1  UNL1        0.0612
     21 N           8.0370   34.0052   14.7255 N.ar    1  UNL1       -0.3224
     22 C           6.6694   33.9727   15.2272 C.3     1  UNL1        0.1381
     23 C           5.7510   33.2577   14.2479 C.3     1  UNL1        0.1666
     24 C           4.4402   31.5100   14.5480 C.3     1  UNL1        0.1742
     25 O           5.7818   31.8825   14.4822 O.3     1  UNL1       -0.3490
     26 C          13.8383   39.8046    8.2290 C.ar    1  UNL1        0.1987
     27 C          14.7816   40.8123    8.2746 C.ar    1  UNL1        0.0455
     28 C          14.0622   41.9884    8.1567 C.ar    1  UNL1        0.0440
     29 C          12.7326   41.6243    8.0390 C.ar    1  UNL1        0.1798
     30 O          12.6415   40.3167    8.0838 O.2     1  UNL1       -0.4458
@<TRIPOS>BOND
     1    24    25    1
     2    23    25    1
     3    23    22    1
     4    22    21    1
     5    14     9    1
     6    14    15   ar
     7     1    10   am
     8     2    10    1
     9     2     3    1
    10     3    11    1
    11     4    11    1
    12     4     5    1
    13     5    10    1
    14     6    26    1
    15    26    30   ar
    16    27    28   ar
    17    29    30   ar
    18    16    17   ar
    19    18    19   ar
    20    20    21   ar
    21    20    15   ar
    22    21    13   ar
    23     9     1   am
    24    11     6   am
    25    13    14   ar
    26     1     7    2
    27     6     8    2
    28    26    27   ar
    29    28    29   ar
    30    15    16   ar
    31    17    18   ar
    32    19    20   ar
    33     9    12    1
@<TRIPOS>MOLECULE
MolPort-003-159-980 5266307 CSSS03437068660 MCULE-5115556212 PubChem-18582437 ZINC000005266307 ZINC05266307
 30 33 0 0 0
SMALL
GASTEIGER

@<TRIPOS>ATOM
      1 C           8.2625   39.6237    7.0879 C.2     1  UNL1        0.3078
      2 C           7.1216   41.2496    8.6238 C.3     1  UNL1        0.1165
      3 C           7.4434   42.2813    9.7021 C.3     1  UNL1        0.1154
      4 C           9.5202   40.9525   10.2800 C.3     1  UNL1        0.1154
      5 C           9.6349   40.8978    8.7558 C.3     1  UNL1        0.1165
      6 C           7.9231   41.7286   12.0940 C.2     1  UNL1        0.2839
      7 O           7.1443   39.3366    6.5805 O.2     1  UNL1       -0.2522
      8 O           6.7428   42.0646   12.3852 O.2     1  UNL1       -0.2666
      9 N           9.4519   38.9683    6.6286 N.am    1  UNL1       -0.2668
     10 N           8.3366   40.5625    8.1698 N.am    1  UNL1       -0.2605
     11 N           8.3240   41.6886   10.7098 N.am    1  UNL1       -0.2701
     12 H          10.2457   39.0240    7.2082 H       1  UNL1        0.1565
     13 C           9.5014   36.8558    5.2985 C.ar    1  UNL1        0.0909
     14 C           9.5906   38.2393    5.4023 C.ar    1  UNL1        0.0703
     15 C           9.9265   38.7238    4.1501 C.ar    1  UNL1        0.0308
     16 C          10.2154   40.0087    3.6922 C.ar    1  UNL1        0.0027
     17 C          10.5573   40.1590    2.3370 C.ar    1  UNL1        0.0001
     18 C          10.6157   39.0368    1.4835 C.ar    1  UNL1        0.0015
     19 C          10.3434   37.7483    1.9773 C.ar    1  UNL1        0.0172
     20 C          10.0062   37.6291    3.3267 C.ar    1  UNL1        0.0612
     21 N           9.7506   36.5005    4.0170 N.ar    1  UNL1       -0.3224
     22 C           9.7322   35.1349    3.5093 C.3     1  UNL1        0.1381
     23 C          11.1442   34.5806    3.3971 C.3     1  UNL1        0.1666
     24 C          11.6071   32.4246    3.4198 C.3     1  UNL1        0.1742
     25 O          11.1473   33.4440    2.5875 O.3     1  UNL1       -0.3490
     26 C           8.8438   41.4094   13.2063 C.ar    1  UNL1        0.1987
     27 C           8.5000   41.0754   14.5015 C.ar    1  UNL1        0.0455
     28 C           9.7022   40.8612   15.1523 C.ar    1  UNL1        0.0440
     29 C          10.6979   41.0692   14.2146 C.ar    1  UNL1        0.1798
     30 O          10.1464   41.3909   13.0690 O.2     1  UNL1       -0.4458
@<TRIPOS>BOND
     1    24    25    1
     2    23    25    1
     3    23    22    1
     4    22    21    1
     5    14     9    1
     6    14    15   ar
     7     1    10   am
     8     2    10    1
     9     2     3    1
    10     3    11    1
    11     4    11    1
    12     4     5    1
    13     5    10    1
    14     6    26    1
    15    26    30   ar
    16    27    28   ar
    17    29    30   ar
    18    16    17   ar
    19    18    19   ar
    20    20    21   ar
    21    20    15   ar
    22    21    13   ar
    23     9     1   am
    24    11     6   am
    25    13    14   ar
    26     1     7    2
    27     6     8    2
    28    26    27   ar
    29    28    29   ar
    30    15    16   ar
    31    17    18   ar
    32    19    20   ar
    33     9    12    1
@<TRIPOS>MOLECULE
MolPort-003-159-980 5266307 CSSS03437068660 MCULE-5115556212 PubChem-18582437 ZINC000005266307 ZINC05266307
 30 33 0 0 0
SMALL
GASTEIGER

@<TRIPOS>ATOM
      1 C           8.6085   41.6135    8.5608 C.2     1  UNL1        0.3078
      2 C          10.9624   41.5621    7.6886 C.3     1  UNL1        0.1165
      3 C          11.9956   40.5849    7.1333 C.3     1  UNL1        0.1154
      4 C          10.9142   38.7469    8.4990 C.3     1  UNL1        0.1154
      5 C           9.6427   39.4081    7.9646 C.3     1  UNL1        0.1165
      6 C          13.4291   39.0898    8.5357 C.2     1  UNL1        0.2839
      7 O           8.6916   42.8665    8.6770 O.2     1  UNL1       -0.2522
      8 O          14.3842   39.8992    8.3828 O.2     1  UNL1       -0.2666
      9 N           7.4070   40.9322    8.9445 N.am    1  UNL1       -0.2668
     10 N           9.7409   40.8616    8.1025 N.am    1  UNL1       -0.2605
     11 N          12.1240   39.4351    8.0298 N.am    1  UNL1       -0.2701
     12 H           7.4688   39.9594    9.0824 H       1  UNL1        0.1565
     13 C           5.6378   42.6091    8.4038 C.ar    1  UNL1        0.0909
     14 C           6.1239   41.5384    9.1456 C.ar    1  UNL1        0.0703
     15 C           5.1929   41.2676   10.1334 C.ar    1  UNL1        0.0308
     16 C           5.1920   40.3612   11.1930 C.ar    1  UNL1        0.0027
     17 C           4.0797   40.3607   12.0525 C.ar    1  UNL1        0.0001
     18 C           3.0136   41.2618   11.8463 C.ar    1  UNL1        0.0015
     19 C           3.0514   42.1826   10.7838 C.ar    1  UNL1        0.0172
     20 C           4.1679   42.1603    9.9461 C.ar    1  UNL1        0.0612
     21 N           4.4338   42.9712    8.9034 N.ar    1  UNL1       -0.3224
     22 C           3.6003   44.0457    8.3801 C.3     1  UNL1        0.1381
     23 C           4.4535   45.1251    7.7316 C.3     1  UNL1        0.1666
     24 C           6.6040   45.2159    7.2520 C.3     1  UNL1        0.1742
     25 O           5.7162   45.1556    8.3249 O.3     1  UNL1       -0.3490
     26 C          13.7128   37.8087    9.2177 C.ar    1  UNL1        0.1987
     27 C          13.6945   37.5680   10.5775 C.ar    1  UNL1        0.0455
     28 C          14.0150   36.2287   10.7133 C.ar    1  UNL1        0.0440
     29 C          14.1993   35.7382    9.4329 C.ar    1  UNL1        0.1798
     30 O          14.0080   36.7084    8.5713 O.2     1  UNL1       -0.4458
@<TRIPOS>BOND
     1    24    25    1
     2    23    25    1
     3    23    22    1
     4    22    21    1
     5    14     9    1
     6    14    15   ar
     7     1    10   am
     8     2    10    1
     9     2     3    1
    10     3    11    1
    11     4    11    1
    12     4     5    1
    13     5    10    1
    14     6    26    1
    15    26    30   ar
    16    27    28   ar
    17    29    30   ar
    18    16    17   ar
    19    18    19   ar
    20    20    21   ar
    21    20    15   ar
    22    21    13   ar
    23     9     1   am
    24    11     6   am
    25    13    14   ar
    26     1     7    2
    27     6     8    2
    28    26    27   ar
    29    28    29   ar
    30    15    16   ar
    31    17    18   ar
    32    19    20   ar
    33     9    12    1
@<TRIPOS>MOLECULE
MolPort-003-159-980 5266307 CSSS03437068660 MCULE-5115556212 PubChem-18582437 ZINC000005266307 ZINC05266307
 30 33 0 0 0
SMALL
GASTEIGER

@<TRIPOS>ATOM
      1 C          11.6152   40.0298    9.9593 C.2     1  UNL1        0.3078
      2 C          13.8169   39.6943   11.1189 C.3     1  UNL1        0.1165
      3 C          15.2907   39.4467   10.8072 C.3     1  UNL1        0.1154
      4 C          14.5899   38.2950    8.6635 C.3     1  UNL1        0.1154
      5 C          13.6483   39.4982    8.5909 C.3     1  UNL1        0.1165
      6 C          16.2626   37.2135   10.2369 C.2     1  UNL1        0.2839
      7 O          11.0674   40.2180   11.0796 O.2     1  UNL1       -0.2522
      8 O          16.6880   37.1212   11.4206 O.2     1  UNL1       -0.2666
      9 N          10.8329   40.0702    8.7587 N.am    1  UNL1       -0.2668
     10 N          13.0125   39.7130    9.8913 N.am    1  UNL1       -0.2605
     11 N          15.4198   38.3257    9.8750 N.am    1  UNL1       -0.2701
     12 H          11.2317   39.6724    7.9513 H       1  UNL1        0.1565
     13 C           9.0125   41.6315    9.4533 C.ar    1  UNL1        0.0909
     14 C           9.5231   40.6370    8.6268 C.ar    1  UNL1        0.0703
     15 C           8.5096   40.2619    7.7619 C.ar    1  UNL1        0.0308
     16 C           8.4356   39.2717    6.7832 C.ar    1  UNL1        0.0027
     17 C           7.2224   39.1286    6.0877 C.ar    1  UNL1        0.0001
     18 C           6.1206   39.9569    6.3898 C.ar    1  UNL1        0.0015
     19 C           6.2149   40.9318    7.3991 C.ar    1  UNL1        0.0172
     20 C           7.4316   41.0519    8.0728 C.ar    1  UNL1        0.0612
     21 N           7.7320   41.8789    9.0932 N.ar    1  UNL1       -0.3224
     22 C           6.8654   42.8714    9.7154 C.3     1  UNL1        0.1381
     23 C           6.2997   43.8245    8.6736 C.3     1  UNL1        0.1666
     24 C           4.5053   44.7713    7.8096 C.3     1  UNL1        0.1742
     25 O           4.9436   44.0463    8.9166 O.3     1  UNL1       -0.3490
     26 C          16.6748   36.1711    9.2724 C.ar    1  UNL1        0.1987
     27 C          16.1220   35.9196    8.0320 C.ar    1  UNL1        0.0455
     28 C          16.8527   34.8637    7.5163 C.ar    1  UNL1        0.0440
     29 C          17.8057   34.5453    8.4673 C.ar    1  UNL1        0.1798
     30 O          17.6686   35.3475    9.4959 O.2     1  UNL1       -0.4458
@<TRIPOS>BOND
     1    24    25    1
     2    23    25    1
     3    23    22    1
     4    22    21    1
     5    14     9    1
     6    14    15   ar
     7     1    10   am
     8     2    10    1
     9     2     3    1
    10     3    11    1
    11     4    11    1
    12     4     5    1
    13     5    10    1
    14     6    26    1
    15    26    30   ar
    16    27    28   ar
    17    29    30   ar
    18    16    17   ar
    19    18    19   ar
    20    20    21   ar
    21    20    15   ar
    22    21    13   ar
    23     9     1   am
    24    11     6   am
    25    13    14   ar
    26     1     7    2
    27     6     8    2
    28    26    27   ar
    29    28    29   ar
    30    15    16   ar
    31    17    18   ar
    32    19    20   ar
    33     9    12    1
@<TRIPOS>MOLECULE
MolPort-003-159-980 5266307 CSSS03437068660 MCULE-5115556212 PubChem-18582437 ZINC000005266307 ZINC05266307
 30 33 0 0 0
SMALL
GASTEIGER

@<TRIPOS>ATOM
      1 C           9.0379   41.3518    9.3140 C.2     1  UNL1        0.3078
      2 C          11.3073   40.3086    9.5704 C.3     1  UNL1        0.1165
      3 C          12.7663   40.6952    9.7994 C.3     1  UNL1        0.1154
      4 C          12.3069   42.9044    8.6501 C.3     1  UNL1        0.1154
      5 C          11.0490   42.8361    9.5175 C.3     1  UNL1        0.1165
      6 C          14.3182   41.4952    8.0081 C.2     1  UNL1        0.2839
      7 O           8.5290   40.1999    9.2470 O.2     1  UNL1       -0.2522
      8 O          14.8239   40.3407    7.9616 O.2     1  UNL1       -0.2666
      9 N           8.2063   42.5145    9.2053 N.am    1  UNL1       -0.2668
     10 N          10.4594   41.4991    9.4364 N.am    1  UNL1       -0.2605
     11 N          13.1635   41.7265    8.8397 N.am    1  UNL1       -0.2701
     12 H           8.6544   43.3679    9.0053 H       1  UNL1        0.1565
     13 C           6.0478   41.5965   10.0611 C.ar    1  UNL1        0.0909
     14 C           6.7819   42.5475    9.3614 C.ar    1  UNL1        0.0703
     15 C           5.8772   43.4273    8.7929 C.ar    1  UNL1        0.0308
     16 C           6.0439   44.5154    7.9371 C.ar    1  UNL1        0.0027
     17 C           4.8898   45.1948    7.5101 C.ar    1  UNL1        0.0001
     18 C           3.6112   44.7705    7.9301 C.ar    1  UNL1        0.0015
     19 C           3.4700   43.6544    8.7743 C.ar    1  UNL1        0.0172
     20 C           4.6332   42.9995    9.1829 C.ar    1  UNL1        0.0612
     21 N           4.7330   41.8948    9.9479 N.ar    1  UNL1       -0.3224
     22 C           3.6484   41.1387   10.5602 C.3     1  UNL1        0.1381
     23 C           3.1716   41.8144   11.8369 C.3     1  UNL1        0.1666
     24 C           1.3435   42.4659   12.8840 C.3     1  UNL1        0.1742
     25 O           1.9333   42.4206   11.6217 O.3     1  UNL1       -0.3490
     26 C          14.9601   42.5623    7.2105 C.ar    1  UNL1        0.1987
     27 C          14.4880   43.1252    6.0410 C.ar    1  UNL1        0.0455
     28 C          15.4301   44.0760    5.6899 C.ar    1  UNL1        0.0440
     29 C          16.4082   44.0382    6.6677 C.ar    1  UNL1        0.1798
     30 O          16.0905   43.1267    7.5557 O.2     1  UNL1       -0.4458
@<TRIPOS>BOND
     1    24    25    1
     2    23    25    1
     3    23    22    1
     4    22    21    1
     5    14     9    1
     6    14    15   ar
     7     1    10   am
     8     2    10    1
     9     2     3    1
    10     3    11    1
    11     4    11    1
    12     4     5    1
    13     5    10    1
    14     6    26    1
    15    26    30   ar
    16    27    28   ar
    17    29    30   ar
    18    16    17   ar
    19    18    19   ar
    20    20    21   ar
    21    20    15   ar
    22    21    13   ar
    23     9     1   am
    24    11     6   am
    25    13    14   ar
    26     1     7    2
    27     6     8    2
    28    26    27   ar
    29    28    29   ar
    30    15    16   ar
    31    17    18   ar
    32    19    20   ar
    33     9    12    1
@<TRIPOS>MOLECULE
MolPort-003-159-980 5266307 CSSS03437068660 MCULE-5115556212 PubChem-18582437 ZINC000005266307 ZINC05266307
 30 33 0 0 0
SMALL
GASTEIGER

@<TRIPOS>ATOM
      1 C          10.7325   40.8930    9.3355 C.2     1  UNL1        0.3078
      2 C           9.1880   42.6298    8.3857 C.3     1  UNL1        0.1165
      3 C           8.0582   43.5649    8.8095 C.3     1  UNL1        0.1154
      4 C           7.4396   41.9101   10.6239 C.3     1  UNL1        0.1154
      5 C           8.9583   41.8847   10.8043 C.3     1  UNL1        0.1165
      6 C           5.6700   42.8710    9.0783 C.2     1  UNL1        0.2839
      7 O          11.2995   40.8002    8.2129 O.2     1  UNL1       -0.2522
      8 O           5.4189   43.3787    7.9514 O.2     1  UNL1       -0.2666
      9 N          11.1632   40.0737   10.4302 N.am    1  UNL1       -0.2668
     10 N           9.6135   41.7751    9.5004 N.am    1  UNL1       -0.2605
     11 N           7.0357   42.8110    9.5364 N.am    1  UNL1       -0.2701
     12 H          10.5472   39.9865   11.1933 H       1  UNL1        0.1565
     13 C          13.6411   39.9793   10.7221 C.ar    1  UNL1        0.0909
     14 C          12.4088   39.3698   10.5150 C.ar    1  UNL1        0.0703
     15 C          12.6467   38.0208   10.3163 C.ar    1  UNL1        0.0308
     16 C          11.8002   36.9603    9.9956 C.ar    1  UNL1        0.0027
     17 C          12.3774   35.6892    9.8304 C.ar    1  UNL1        0.0001
     18 C          13.7697   35.5098    9.9736 C.ar    1  UNL1        0.0015
     19 C          14.6040   36.6018   10.2734 C.ar    1  UNL1        0.0172
     20 C          14.0034   37.8519   10.4324 C.ar    1  UNL1        0.0612
     21 N          14.6060   39.0320   10.6769 N.ar    1  UNL1       -0.3224
     22 C          16.0294   39.2786   10.8676 C.3     1  UNL1        0.1381
     23 C          16.8617   38.2949   10.0594 C.3     1  UNL1        0.1666
     24 C          19.0404   38.5070   10.3267 C.3     1  UNL1        0.1742
     25 O          17.9809   38.9391    9.5305 O.3     1  UNL1       -0.3490
     26 C           4.5310   42.3777    9.8821 C.ar    1  UNL1        0.1987
     27 C           3.3226   41.9040    9.4100 C.ar    1  UNL1        0.0455
     28 C           2.6020   41.5585   10.5396 C.ar    1  UNL1        0.0440
     29 C           3.4164   41.8343   11.6235 C.ar    1  UNL1        0.1798
     30 O           4.5561   42.3177   11.1903 O.2     1  UNL1       -0.4458
@<TRIPOS>BOND
     1    24    25    1
     2    23    25    1
     3    23    22    1
     4    22    21    1
     5    14     9    1
     6    14    15   ar
     7     1    10   am
     8     2    10    1
     9     2     3    1
    10     3    11    1
    11     4    11    1
    12     4     5    1
    13     5    10    1
    14     6    26    1
    15    26    30   ar
    16    27    28   ar
    17    29    30   ar
    18    16    17   ar
    19    18    19   ar
    20    20    21   ar
    21    20    15   ar
    22    21    13   ar
    23     9     1   am
    24    11     6   am
    25    13    14   ar
    26     1     7    2
    27     6     8    2
    28    26    27   ar
    29    28    29   ar
    30    15    16   ar
    31    17    18   ar
    32    19    20   ar
    33     9    12    1
