@<TRIPOS>MOLECULE
MolPort-002-599-406 2422375 CSSS00160675833 MCULE-5566734325 PubChem-2019102 ZINC000002422375 ZINC02422375
 27 30 0 0 0
SMALL
GASTEIGER

@<TRIPOS>ATOM
      1 C           0.8882   43.2889   13.2527 C.ar    1  UNL1        0.1571
      2 C           0.6092   44.0779   14.3581 C.ar    1  UNL1        0.0689
      3 C           1.3529   44.9658   15.1290 C.ar    1  UNL1        0.0074
      4 C           0.7073   45.5439   16.2356 C.ar    1  UNL1        0.0179
      5 C           1.3838   46.4557   17.0491 C.ar    1  UNL1        0.0015
      6 C           0.7353   47.0242   18.1498 C.ar    1  UNL1        0.0001
      7 C          -0.5896   46.6833   18.4432 C.ar    1  UNL1        0.0015
      8 C          -1.2790   45.7703   17.6389 C.ar    1  UNL1        0.0192
      9 C          -0.6461   45.1944   16.5345 C.ar    1  UNL1        0.0829
     10 C          -0.6768   43.7600   14.6841 C.ar    1  UNL1        0.1621
     11 N          -1.1459   42.8258   13.8432 N.ar    1  UNL1       -0.2329
     12 N          -0.1939   42.5234   12.9666 N.ar    1  UNL1       -0.1527
     13 N          -1.3171   44.2955   15.7536 N.ar    1  UNL1       -0.2268
     14 C           2.7589   41.9490   12.1464 C.2     1  UNL1        0.2506
     15 N           2.1312   43.1726   12.5497 N.am    1  UNL1       -0.2644
     16 O           2.4025   40.8526   12.6570 O.2     1  UNL1       -0.2698
     17 H           2.5967   44.0100   12.3229 H       1  UNL1        0.1566
     18 C           3.8638   41.9783   11.1722 C.ar    1  UNL1        0.0537
     19 C           5.0889   41.3643   11.4713 C.ar    1  UNL1        0.0045
     20 C           6.1386   41.3935   10.5485 C.ar    1  UNL1        0.0001
     21 C           5.9710   42.0375    9.3196 C.ar    1  UNL1        0.0000
     22 C           4.7540   42.6524    9.0134 C.ar    1  UNL1        0.0001
     23 C           3.7043   42.6233    9.9364 C.ar    1  UNL1        0.0045
     24 C          -2.4690   42.2223   13.8674 C.3     1  UNL1        0.1292
     25 C          -2.3846   40.7645   13.4462 C.3     1  UNL1        0.0264
     26 C          -2.1296   40.6409   15.9226 C.3     1  UNL1        0.0001
     27 C          -2.4449   39.8578   14.6620 C.3     1  UNL1        0.0021
@<TRIPOS>BOND
     1    26    27    1
     2    27    25    1
     3    25    24    1
     4    24    11    1
     5     1    15    1
     6     1     2   ar
     7    14    18    1
     8    19    20   ar
     9    21    22   ar
    10    23    18   ar
    11     3     4   ar
    12     5     6   ar
    13     7     8   ar
    14     9    13   ar
    15     9     4   ar
    16    10    11   ar
    17    10     2   ar
    18    11    12   ar
    19    15    14   am
    20     1    12   ar
    21    14    16    2
    22    18    19   ar
    23    20    21   ar
    24    22    23   ar
    25     2     3   ar
    26     4     5   ar
    27     6     7   ar
    28     8     9   ar
    29    10    13   ar
    30    15    17    1
@<TRIPOS>MOLECULE
MolPort-002-599-406 2422375 CSSS00160675833 MCULE-5566734325 PubChem-2019102 ZINC000002422375 ZINC02422375
 27 30 0 0 0
SMALL
GASTEIGER

@<TRIPOS>ATOM
      1 C          11.7251   41.8515    7.9745 C.ar    1  UNL1        0.1571
      2 C          12.6647   41.1603    8.7239 C.ar    1  UNL1        0.0689
      3 C          12.6037   40.3735    9.8698 C.ar    1  UNL1        0.0074
      4 C          13.8214   39.8802   10.3693 C.ar    1  UNL1        0.0179
      5 C          13.8402   39.0713   11.5077 C.ar    1  UNL1        0.0015
      6 C          15.0560   38.5870   12.0000 C.ar    1  UNL1        0.0001
      7 C          16.2570   38.9096   11.3588 C.ar    1  UNL1        0.0015
      8 C          16.2540   39.7201   10.2191 C.ar    1  UNL1        0.0192
      9 C          15.0477   40.2109    9.7135 C.ar    1  UNL1        0.0829
     10 C          13.8569   41.4644    8.1345 C.ar    1  UNL1        0.1621
     11 N          13.6593   42.2999    7.1035 N.ar    1  UNL1       -0.2329
     12 N          12.3582   42.5506    7.0002 N.ar    1  UNL1       -0.1527
     13 N          15.0457   41.0103    8.6048 N.ar    1  UNL1       -0.2268
     14 C           9.6717   42.7893    9.1674 C.2     1  UNL1        0.2506
     15 N          10.3140   41.9428    8.2057 N.am    1  UNL1       -0.2644
     16 O          10.3369   43.3049   10.1062 O.2     1  UNL1       -0.2698
     17 H           9.7325   41.3717    7.6535 H       1  UNL1        0.1566
     18 C           8.2174   43.0130    9.0914 C.ar    1  UNL1        0.0537
     19 C           7.3252   42.0427    9.5707 C.ar    1  UNL1        0.0045
     20 C           5.9451   42.2532    9.4971 C.ar    1  UNL1        0.0001
     21 C           5.4469   43.4355    8.9431 C.ar    1  UNL1        0.0000
     22 C           6.3287   44.4074    8.4626 C.ar    1  UNL1        0.0001
     23 C           7.7088   44.1969    8.5361 C.ar    1  UNL1        0.0045
     24 C          14.6804   42.8588    6.2315 C.3     1  UNL1        0.1292
     25 C          15.3523   44.0424    6.9078 C.3     1  UNL1        0.0264
     26 C          17.4169   43.8537    8.2914 C.3     1  UNL1        0.0001
     27 C          16.8614   43.8814    6.8799 C.3     1  UNL1        0.0021
@<TRIPOS>BOND
     1    26    27    1
     2    27    25    1
     3    25    24    1
     4    24    11    1
     5     1    15    1
     6     1     2   ar
     7    14    18    1
     8    19    20   ar
     9    21    22   ar
    10    23    18   ar
    11     3     4   ar
    12     5     6   ar
    13     7     8   ar
    14     9    13   ar
    15     9     4   ar
    16    10    11   ar
    17    10     2   ar
    18    11    12   ar
    19    15    14   am
    20     1    12   ar
    21    14    16    2
    22    18    19   ar
    23    20    21   ar
    24    22    23   ar
    25     2     3   ar
    26     4     5   ar
    27     6     7   ar
    28     8     9   ar
    29    10    13   ar
    30    15    17    1
@<TRIPOS>MOLECULE
MolPort-002-599-406 2422375 CSSS00160675833 MCULE-5566734325 PubChem-2019102 ZINC000002422375 ZINC02422375
 27 30 0 0 0
SMALL
GASTEIGER

@<TRIPOS>ATOM
      1 C          11.7059   41.8593    7.4157 C.ar    1  UNL1        0.1571
      2 C          10.8981   41.7629    8.5383 C.ar    1  UNL1        0.0689
      3 C          11.1431   41.6520    9.9034 C.ar    1  UNL1        0.0074
      4 C          10.0237   41.5169   10.7426 C.ar    1  UNL1        0.0179
      5 C          10.1881   41.4145   12.1258 C.ar    1  UNL1        0.0015
      6 C           9.0695   41.2775   12.9536 C.ar    1  UNL1        0.0001
      7 C           7.7835   41.2405   12.4035 C.ar    1  UNL1        0.0015
      8 C           7.6035   41.3399   11.0202 C.ar    1  UNL1        0.0192
      9 C           8.7104   41.4788   10.1794 C.ar    1  UNL1        0.0829
     10 C           9.6299   41.7089    8.0383 C.ar    1  UNL1        0.1621
     11 N           9.6629   41.7524    6.6978 N.ar    1  UNL1       -0.2329
     12 N          10.9294   41.8368    6.3042 N.ar    1  UNL1       -0.1527
     13 N           8.5350   41.5670    8.8267 N.ar    1  UNL1       -0.2268
     14 C          13.9529   42.9530    6.8928 C.2     1  UNL1        0.2506
     15 N          13.1377   41.8727    7.3643 N.am    1  UNL1       -0.2644
     16 O          13.4481   43.8732    6.1942 O.2     1  UNL1       -0.2698
     17 H          13.6041   41.0660    7.6819 H       1  UNL1        0.1566
     18 C          15.3983   42.9593    7.1784 C.ar    1  UNL1        0.0537
     19 C          15.9392   42.0676    8.1163 C.ar    1  UNL1        0.0045
     20 C          17.3102   42.0743    8.3895 C.ar    1  UNL1        0.0001
     21 C          18.1505   42.9732    7.7271 C.ar    1  UNL1        0.0000
     22 C          17.6201   43.8655    6.7916 C.ar    1  UNL1        0.0001
     23 C          16.2490   43.8590    6.5184 C.ar    1  UNL1        0.0045
     24 C           8.5195   41.7096    5.7998 C.3     1  UNL1        0.1292
     25 C           7.2605   42.1317    6.5388 C.3     1  UNL1        0.0264
     26 C           5.9174   44.1022    7.2642 C.3     1  UNL1        0.0001
     27 C           6.9702   43.6013    6.2934 C.3     1  UNL1        0.0021
@<TRIPOS>BOND
     1    26    27    1
     2    27    25    1
     3    25    24    1
     4    24    11    1
     5     1    15    1
     6     1     2   ar
     7    14    18    1
     8    19    20   ar
     9    21    22   ar
    10    23    18   ar
    11     3     4   ar
    12     5     6   ar
    13     7     8   ar
    14     9    13   ar
    15     9     4   ar
    16    10    11   ar
    17    10     2   ar
    18    11    12   ar
    19    15    14   am
    20     1    12   ar
    21    14    16    2
    22    18    19   ar
    23    20    21   ar
    24    22    23   ar
    25     2     3   ar
    26     4     5   ar
    27     6     7   ar
    28     8     9   ar
    29    10    13   ar
    30    15    17    1
@<TRIPOS>MOLECULE
MolPort-002-599-406 2422375 CSSS00160675833 MCULE-5566734325 PubChem-2019102 ZINC000002422375 ZINC02422375
 27 30 0 0 0
SMALL
GASTEIGER

@<TRIPOS>ATOM
      1 C          11.9247   41.3519    8.1725 C.ar    1  UNL1        0.1571
      2 C          13.1552   41.9225    7.8847 C.ar    1  UNL1        0.0689
      3 C          13.5645   43.0157    7.1277 C.ar    1  UNL1        0.0074
      4 C          14.9484   43.2425    7.0329 C.ar    1  UNL1        0.0179
      5 C          15.4362   44.3284    6.3024 C.ar    1  UNL1        0.0015
      6 C          16.8145   44.5454    6.2106 C.ar    1  UNL1        0.0001
      7 C          17.7104   43.6787    6.8461 C.ar    1  UNL1        0.0015
      8 C          17.2367   42.5861    7.5794 C.ar    1  UNL1        0.0192
      9 C          15.8626   42.3560    7.6823 C.ar    1  UNL1        0.0829
     10 C          14.0598   41.0918    8.4786 C.ar    1  UNL1        0.1621
     11 N          13.4240   40.0720    9.0751 N.ar    1  UNL1       -0.2329
     12 N          12.1161   40.2161    8.8881 N.ar    1  UNL1       -0.1527
     13 N          15.4002   41.2831    8.3916 N.ar    1  UNL1       -0.2268
     14 C           9.4782   41.9770    8.5500 C.2     1  UNL1        0.2506
     15 N          10.6332   41.7807    7.7245 N.am    1  UNL1       -0.2644
     16 O           9.4349   41.4865    9.7108 O.2     1  UNL1       -0.2698
     17 H          10.5296   41.9567    6.7614 H       1  UNL1        0.1566
     18 C           8.3137   42.7073    8.0197 C.ar    1  UNL1        0.0537
     19 C           7.8660   42.4729    6.7112 C.ar    1  UNL1        0.0045
     20 C           6.7624   43.1669    6.2064 C.ar    1  UNL1        0.0001
     21 C           6.0985   44.1009    7.0063 C.ar    1  UNL1        0.0000
     22 C           6.5380   44.3411    8.3109 C.ar    1  UNL1        0.0001
     23 C           7.6417   43.6472    8.8158 C.ar    1  UNL1        0.0045
     24 C          14.0384   38.9748    9.8060 C.3     1  UNL1        0.1292
     25 C          13.9855   39.2495   11.2998 C.3     1  UNL1        0.0264
     26 C          16.4523   38.8961   11.2489 C.3     1  UNL1        0.0001
     27 C          15.1670   38.6022   11.9992 C.3     1  UNL1        0.0021
@<TRIPOS>BOND
     1    26    27    1
     2    27    25    1
     3    25    24    1
     4    24    11    1
     5     1    15    1
     6     1     2   ar
     7    14    18    1
     8    19    20   ar
     9    21    22   ar
    10    23    18   ar
    11     3     4   ar
    12     5     6   ar
    13     7     8   ar
    14     9    13   ar
    15     9     4   ar
    16    10    11   ar
    17    10     2   ar
    18    11    12   ar
    19    15    14   am
    20     1    12   ar
    21    14    16    2
    22    18    19   ar
    23    20    21   ar
    24    22    23   ar
    25     2     3   ar
    26     4     5   ar
    27     6     7   ar
    28     8     9   ar
    29    10    13   ar
    30    15    17    1
@<TRIPOS>MOLECULE
MolPort-002-599-406 2422375 CSSS00160675833 MCULE-5566734325 PubChem-2019102 ZINC000002422375 ZINC02422375
 27 30 0 0 0
SMALL
GASTEIGER

@<TRIPOS>ATOM
      1 C          11.9112   41.4747    7.0109 C.ar    1  UNL1        0.1571
      2 C          10.9478   41.5623    8.0042 C.ar    1  UNL1        0.0689
      3 C          10.9854   41.8057    9.3736 C.ar    1  UNL1        0.0074
      4 C           9.7617   41.7554   10.0632 C.ar    1  UNL1        0.0179
      5 C           9.7163   42.0028   11.4371 C.ar    1  UNL1        0.0015
      6 C           8.4954   41.9479   12.1164 C.ar    1  UNL1        0.0001
      7 C           7.3161   41.6444   11.4273 C.ar    1  UNL1        0.0015
      8 C           7.3464   41.3924   10.0520 C.ar    1  UNL1        0.0192
      9 C           8.5577   41.4447    9.3581 C.ar    1  UNL1        0.0829
     10 C           9.7796   41.2560    7.3696 C.ar    1  UNL1        0.1621
     11 N          10.0169   40.9829    6.0777 N.ar    1  UNL1       -0.2329
     12 N          11.3201   41.1060    5.8476 N.ar    1  UNL1       -0.1527
     13 N           8.5884   41.1897    8.0156 N.ar    1  UNL1       -0.2268
     14 C          14.0923   42.7788    6.7648 C.2     1  UNL1        0.2506
     15 N          13.3290   41.6281    7.1487 N.am    1  UNL1       -0.2644
     16 O          13.5993   43.6383    5.9852 O.2     1  UNL1       -0.2698
     17 H          13.8242   40.8742    7.5431 H       1  UNL1        0.1566
     18 C          15.4793   42.9296    7.2385 C.ar    1  UNL1        0.0537
     19 C          16.0149   42.0216    8.1637 C.ar    1  UNL1        0.0045
     20 C          17.3301   42.1652    8.6154 C.ar    1  UNL1        0.0001
     21 C          18.1194   43.2183    8.1454 C.ar    1  UNL1        0.0000
     22 C          17.5937   44.1280    7.2239 C.ar    1  UNL1        0.0001
     23 C          16.2784   43.9845    6.7723 C.ar    1  UNL1        0.0045
     24 C           9.0326   40.6062    5.0754 C.3     1  UNL1        0.1292
     25 C           9.1117   39.1133    4.8027 C.3     1  UNL1        0.0264
     26 C           9.9395   37.3919    3.2013 C.3     1  UNL1        0.0001
     27 C           9.5991   38.8585    3.3879 C.3     1  UNL1        0.0021
@<TRIPOS>BOND
     1    26    27    1
     2    27    25    1
     3    25    24    1
     4    24    11    1
     5     1    15    1
     6     1     2   ar
     7    14    18    1
     8    19    20   ar
     9    21    22   ar
    10    23    18   ar
    11     3     4   ar
    12     5     6   ar
    13     7     8   ar
    14     9    13   ar
    15     9     4   ar
    16    10    11   ar
    17    10     2   ar
    18    11    12   ar
    19    15    14   am
    20     1    12   ar
    21    14    16    2
    22    18    19   ar
    23    20    21   ar
    24    22    23   ar
    25     2     3   ar
    26     4     5   ar
    27     6     7   ar
    28     8     9   ar
    29    10    13   ar
    30    15    17    1
@<TRIPOS>MOLECULE
MolPort-002-599-406 2422375 CSSS00160675833 MCULE-5566734325 PubChem-2019102 ZINC000002422375 ZINC02422375
 27 30 0 0 0
SMALL
GASTEIGER

@<TRIPOS>ATOM
      1 C          12.6180   40.5859    8.4530 C.ar    1  UNL1        0.1571
      2 C          13.7236   41.3343    8.0791 C.ar    1  UNL1        0.0689
      3 C          13.9593   42.2944    7.1000 C.ar    1  UNL1        0.0074
      4 C          15.2695   42.7930    6.9992 C.ar    1  UNL1        0.0179
      5 C          15.5810   43.7693    6.0502 C.ar    1  UNL1        0.0015
      6 C          16.8875   44.2581    5.9544 C.ar    1  UNL1        0.0001
      7 C          17.8877   43.7731    6.8042 C.ar    1  UNL1        0.0015
      8 C          17.5912   42.7942    7.7579 C.ar    1  UNL1        0.0192
      9 C          16.2905   42.2964    7.8677 C.ar    1  UNL1        0.0829
     10 C          14.7283   40.8762    8.8803 C.ar    1  UNL1        0.1621
     11 N          14.2699   39.9005    9.6788 N.ar    1  UNL1       -0.2329
     12 N          12.9803   39.7082    9.4211 N.ar    1  UNL1       -0.1527
     13 N          16.0028   41.3333    8.7939 N.ar    1  UNL1       -0.2268
     14 C          10.3186   39.5780    7.9888 C.2     1  UNL1        0.2506
     15 N          11.3071   40.6095    7.8755 N.am    1  UNL1       -0.2644
     16 O          10.6478   38.4195    8.3619 O.2     1  UNL1       -0.2698
     17 H          11.0629   41.4074    7.3530 H       1  UNL1        0.1566
     18 C           8.9215   39.8572    7.6138 C.ar    1  UNL1        0.0537
     19 C           8.1848   40.8332    8.3008 C.ar    1  UNL1        0.0045
     20 C           6.8583   41.0974    7.9472 C.ar    1  UNL1        0.0001
     21 C           6.2585   40.3870    6.9039 C.ar    1  UNL1        0.0000
     22 C           6.9848   39.4124    6.2142 C.ar    1  UNL1        0.0001
     23 C           8.3113   39.1482    6.5680 C.ar    1  UNL1        0.0045
     24 C          15.0353   39.1559   10.6663 C.3     1  UNL1        0.1292
     25 C          14.1023   38.5585   11.7065 C.3     1  UNL1        0.0264
     26 C          13.0794   36.4679   10.8145 C.3     1  UNL1        0.0001
     27 C          14.1832   37.0429   11.6821 C.3     1  UNL1        0.0021
@<TRIPOS>BOND
     1    26    27    1
     2    27    25    1
     3    25    24    1
     4    24    11    1
     5     1    15    1
     6     1     2   ar
     7    14    18    1
     8    19    20   ar
     9    21    22   ar
    10    23    18   ar
    11     3     4   ar
    12     5     6   ar
    13     7     8   ar
    14     9    13   ar
    15     9     4   ar
    16    10    11   ar
    17    10     2   ar
    18    11    12   ar
    19    15    14   am
    20     1    12   ar
    21    14    16    2
    22    18    19   ar
    23    20    21   ar
    24    22    23   ar
    25     2     3   ar
    26     4     5   ar
    27     6     7   ar
    28     8     9   ar
    29    10    13   ar
    30    15    17    1
@<TRIPOS>MOLECULE
MolPort-002-599-406 2422375 CSSS00160675833 MCULE-5566734325 PubChem-2019102 ZINC000002422375 ZINC02422375
 27 30 0 0 0
SMALL
GASTEIGER

@<TRIPOS>ATOM
      1 C          13.0104   39.8469    8.6796 C.ar    1  UNL1        0.1571
      2 C          13.9654   40.7852    8.3191 C.ar    1  UNL1        0.0689
      3 C          14.0124   41.8102    7.3794 C.ar    1  UNL1        0.0074
      4 C          15.2179   42.5256    7.2770 C.ar    1  UNL1        0.0179
      5 C          15.3376   43.5781    6.3667 C.ar    1  UNL1        0.0015
      6 C          16.5412   44.2831    6.2688 C.ar    1  UNL1        0.0001
      7 C          17.6296   43.9390    7.0779 C.ar    1  UNL1        0.0015
      8 C          17.5252   42.8862    7.9926 C.ar    1  UNL1        0.0192
      9 C          16.3293   42.1728    8.1038 C.ar    1  UNL1        0.0829
     10 C          15.0526   40.4703    9.0808 C.ar    1  UNL1        0.1621
     11 N          14.7842   39.3998    9.8435 N.ar    1  UNL1       -0.2329
     12 N          13.5388   39.0040    9.6011 N.ar    1  UNL1       -0.1527
     13 N          16.2302   41.1382    8.9915 N.ar    1  UNL1       -0.2268
     14 C          10.4651   40.0288    8.7628 C.2     1  UNL1        0.2506
     15 N          11.6997   39.6734    8.1276 N.am    1  UNL1       -0.2644
     16 O          10.4280   40.2482   10.0039 O.2     1  UNL1       -0.2698
     17 H          11.6419   39.2733    7.2299 H       1  UNL1        0.1566
     18 C           9.2232   40.0834    7.9720 C.ar    1  UNL1        0.0537
     19 C           8.1661   40.9154    8.3692 C.ar    1  UNL1        0.0045
     20 C           6.9865   40.9662    7.6208 C.ar    1  UNL1        0.0001
     21 C           6.8549   40.1849    6.4696 C.ar    1  UNL1        0.0000
     22 C           7.9029   39.3526    6.0668 C.ar    1  UNL1        0.0001
     23 C           9.0825   39.3017    6.8154 C.ar    1  UNL1        0.0045
     24 C          15.6882   38.7549   10.7829 C.3     1  UNL1        0.1292
     25 C          16.5231   37.7065   10.0666 C.3     1  UNL1        0.0264
     26 C          18.6442   38.9185   10.5611 C.3     1  UNL1        0.0001
     27 C          17.8996   37.6038   10.6981 C.3     1  UNL1        0.0021
@<TRIPOS>BOND
     1    26    27    1
     2    27    25    1
     3    25    24    1
     4    24    11    1
     5     1    15    1
     6     1     2   ar
     7    14    18    1
     8    19    20   ar
     9    21    22   ar
    10    23    18   ar
    11     3     4   ar
    12     5     6   ar
    13     7     8   ar
    14     9    13   ar
    15     9     4   ar
    16    10    11   ar
    17    10     2   ar
    18    11    12   ar
    19    15    14   am
    20     1    12   ar
    21    14    16    2
    22    18    19   ar
    23    20    21   ar
    24    22    23   ar
    25     2     3   ar
    26     4     5   ar
    27     6     7   ar
    28     8     9   ar
    29    10    13   ar
    30    15    17    1
@<TRIPOS>MOLECULE
MolPort-002-599-406 2422375 CSSS00160675833 MCULE-5566734325 PubChem-2019102 ZINC000002422375 ZINC02422375
 27 30 0 0 0
SMALL
GASTEIGER

@<TRIPOS>ATOM
      1 C          12.4253   41.8214    7.7128 C.ar    1  UNL1        0.1571
      2 C          13.2559   41.0706    8.5306 C.ar    1  UNL1        0.0689
      3 C          13.0389   40.1567    9.5570 C.ar    1  UNL1        0.0074
      4 C          14.1766   39.6375   10.1986 C.ar    1  UNL1        0.0179
      5 C          14.0404   38.7044   11.2288 C.ar    1  UNL1        0.0015
      6 C          15.1771   38.1947   11.8640 C.ar    1  UNL1        0.0001
      7 C          16.4532   38.6158   11.4741 C.ar    1  UNL1        0.0015
      8 C          16.6050   39.5510   10.4454 C.ar    1  UNL1        0.0192
      9 C          15.4797   40.0688    9.7996 C.ar    1  UNL1        0.0829
     10 C          14.5155   41.4672    8.1879 C.ar    1  UNL1        0.1621
     11 N          14.4566   42.4103    7.2356 N.ar    1  UNL1       -0.2329
     12 N          13.1813   42.6415    6.9416 N.ar    1  UNL1       -0.1527
     13 N          15.6279   40.9894    8.8002 N.ar    1  UNL1       -0.2268
     14 C          10.1304   40.8910    7.0911 C.2     1  UNL1        0.2506
     15 N          10.9929   41.8534    7.7106 N.am    1  UNL1       -0.2644
     16 O          10.5847   40.0915    6.2285 O.2     1  UNL1       -0.2698
     17 H          10.5617   42.6054    8.1774 H       1  UNL1        0.1566
     18 C           8.6949   40.8727    7.4225 C.ar    1  UNL1        0.0537
     19 C           8.2516   41.3146    8.6776 C.ar    1  UNL1        0.0045
     20 C           6.8900   41.2956    8.9937 C.ar    1  UNL1        0.0001
     21 C           5.9614   40.8339    8.0570 C.ar    1  UNL1        0.0000
     22 C           6.3943   40.3912    6.8041 C.ar    1  UNL1        0.0001
     23 C           7.7560   40.4101    6.4881 C.ar    1  UNL1        0.0045
     24 C          15.5838   43.0884    6.6150 C.3     1  UNL1        0.1292
     25 C          16.4581   43.7281    7.6807 C.3     1  UNL1        0.0264
     26 C          17.9323   43.6171    5.6740 C.3     1  UNL1        0.0001
     27 C          17.7953   44.1393    7.0918 C.3     1  UNL1        0.0021
@<TRIPOS>BOND
     1    26    27    1
     2    27    25    1
     3    25    24    1
     4    24    11    1
     5     1    15    1
     6     1     2   ar
     7    14    18    1
     8    19    20   ar
     9    21    22   ar
    10    23    18   ar
    11     3     4   ar
    12     5     6   ar
    13     7     8   ar
    14     9    13   ar
    15     9     4   ar
    16    10    11   ar
    17    10     2   ar
    18    11    12   ar
    19    15    14   am
    20     1    12   ar
    21    14    16    2
    22    18    19   ar
    23    20    21   ar
    24    22    23   ar
    25     2     3   ar
    26     4     5   ar
    27     6     7   ar
    28     8     9   ar
    29    10    13   ar
    30    15    17    1
@<TRIPOS>MOLECULE
MolPort-002-599-406 2422375 CSSS00160675833 MCULE-5566734325 PubChem-2019102 ZINC000002422375 ZINC02422375
 27 30 0 0 0
SMALL
GASTEIGER

@<TRIPOS>ATOM
      1 C          18.9092   39.8390    6.8805 C.ar    1  UNL1        0.1571
      2 C          18.2256   39.5904    8.0608 C.ar    1  UNL1        0.0689
      3 C          17.6227   38.4652    8.6144 C.ar    1  UNL1        0.0074
      4 C          16.9616   38.6363    9.8429 C.ar    1  UNL1        0.0179
      5 C          16.3445   37.5505   10.4683 C.ar    1  UNL1        0.0015
      6 C          15.6864   37.7295   11.6889 C.ar    1  UNL1        0.0001
      7 C          15.6406   38.9929   12.2886 C.ar    1  UNL1        0.0015
      8 C          16.2522   40.0897   11.6732 C.ar    1  UNL1        0.0192
      9 C          16.9151   39.9276   10.4543 C.ar    1  UNL1        0.0829
     10 C          18.1477   40.8090    8.6692 C.ar    1  UNL1        0.1621
     11 N          18.7306   41.7429    7.9024 N.ar    1  UNL1       -0.2329
     12 N          19.1941   41.1624    6.8004 N.ar    1  UNL1       -0.1527
     13 N          17.5053   41.0014    9.8486 N.ar    1  UNL1       -0.2268
     14 C          19.3900   37.5018    5.9722 C.2     1  UNL1        0.2506
     15 N          19.2016   38.9150    5.8254 N.am    1  UNL1       -0.2644
     16 O          19.6134   37.0044    7.1090 O.2     1  UNL1       -0.2698
     17 H          19.2804   39.2846    4.9163 H       1  UNL1        0.1566
     18 C          19.3782   36.6333    4.7821 C.ar    1  UNL1        0.0537
     19 C          19.6524   37.1654    3.5137 C.ar    1  UNL1        0.0045
     20 C          19.6394   36.3425    2.3836 C.ar    1  UNL1        0.0001
     21 C          19.3515   34.9812    2.5137 C.ar    1  UNL1        0.0000
     22 C          19.0766   34.4426    3.7736 C.ar    1  UNL1        0.0001
     23 C          19.0895   35.2656    4.9036 C.ar    1  UNL1        0.0045
     24 C          18.8450   43.1621    8.1995 C.3     1  UNL1        0.1292
     25 C          17.4892   43.8345    8.0607 C.3     1  UNL1        0.0264
     26 C          15.6126   42.8192    6.7721 C.3     1  UNL1        0.0001
     27 C          16.9161   43.5896    6.6766 C.3     1  UNL1        0.0021
@<TRIPOS>BOND
     1    26    27    1
     2    27    25    1
     3    25    24    1
     4    24    11    1
     5     1    15    1
     6     1     2   ar
     7    14    18    1
     8    19    20   ar
     9    21    22   ar
    10    23    18   ar
    11     3     4   ar
    12     5     6   ar
    13     7     8   ar
    14     9    13   ar
    15     9     4   ar
    16    10    11   ar
    17    10     2   ar
    18    11    12   ar
    19    15    14   am
    20     1    12   ar
    21    14    16    2
    22    18    19   ar
    23    20    21   ar
    24    22    23   ar
    25     2     3   ar
    26     4     5   ar
    27     6     7   ar
    28     8     9   ar
    29    10    13   ar
    30    15    17    1
@<TRIPOS>MOLECULE
MolPort-002-599-406 2422375 CSSS00160675833 MCULE-5566734325 PubChem-2019102 ZINC000002422375 ZINC02422375
 27 30 0 0 0
SMALL
GASTEIGER

@<TRIPOS>ATOM
      1 C          11.8483   42.2400    8.6837 C.ar    1  UNL1        0.1571
      2 C          10.7574   41.6134    8.1010 C.ar    1  UNL1        0.0689
      3 C          10.5803   40.8335    6.9625 C.ar    1  UNL1        0.0074
      4 C           9.2689   40.4194    6.6718 C.ar    1  UNL1        0.0179
      5 C           9.0132   39.6223    5.5538 C.ar    1  UNL1        0.0015
      6 C           7.7054   39.2170    5.2698 C.ar    1  UNL1        0.0001
      7 C           6.6486   39.6072    6.0996 C.ar    1  UNL1        0.0015
      8 C           6.8891   40.4069    7.2214 C.ar    1  UNL1        0.0192
      9 C           8.1901   40.8191    7.5201 C.ar    1  UNL1        0.0829
     10 C           9.6996   41.9850    8.8783 C.ar    1  UNL1        0.1621
     11 N          10.1153   42.7986    9.8607 N.ar    1  UNL1       -0.2329
     12 N          11.4285   42.9686    9.7475 N.ar    1  UNL1       -0.1527
     13 N           8.4239   41.6080    8.6115 N.ar    1  UNL1       -0.2268
     14 C          13.7167   43.0116    7.1241 C.2     1  UNL1        0.2506
     15 N          13.2049   42.2468    8.2228 N.am    1  UNL1       -0.2644
     16 O          12.9294   43.5151    6.2777 O.2     1  UNL1       -0.2698
     17 H          13.8439   41.6737    8.7049 H       1  UNL1        0.1566
     18 C          15.1720   43.1631    6.9514 C.ar    1  UNL1        0.0537
     19 C          16.0597   42.5464    7.8452 C.ar    1  UNL1        0.0045
     20 C          17.4407   42.6913    7.6834 C.ar    1  UNL1        0.0001
     21 C          17.9443   43.4546    6.6267 C.ar    1  UNL1        0.0000
     22 C          17.0671   44.0731    5.7317 C.ar    1  UNL1        0.0001
     23 C          15.6861   43.9283    5.8936 C.ar    1  UNL1        0.0045
     24 C           9.2881   43.4119   10.8879 C.3     1  UNL1        0.1292
     25 C           8.5226   42.3416   11.6482 C.3     1  UNL1        0.0264
     26 C           9.1460   41.2053   13.7773 C.3     1  UNL1        0.0001
     27 C           9.4847   41.3702   12.3077 C.3     1  UNL1        0.0021
@<TRIPOS>BOND
     1    26    27    1
     2    27    25    1
     3    25    24    1
     4    24    11    1
     5     1    15    1
     6     1     2   ar
     7    14    18    1
     8    19    20   ar
     9    21    22   ar
    10    23    18   ar
    11     3     4   ar
    12     5     6   ar
    13     7     8   ar
    14     9    13   ar
    15     9     4   ar
    16    10    11   ar
    17    10     2   ar
    18    11    12   ar
    19    15    14   am
    20     1    12   ar
    21    14    16    2
    22    18    19   ar
    23    20    21   ar
    24    22    23   ar
    25     2     3   ar
    26     4     5   ar
    27     6     7   ar
    28     8     9   ar
    29    10    13   ar
    30    15    17    1
