@<TRIPOS>MOLECULE
MolPort-002-787-490 9778215 CSC020585253 CSSS00020585253 LN01186547 MCULE-3160514531 PubChem-17095082 ZINC000009778215 ZINC09778215
 20 20 0 0 0
SMALL
GASTEIGER

@<TRIPOS>ATOM
      1 C          13.1318   41.2286    8.9177 C.ar    1  UNL1        0.1398
      2 C          12.0219   41.2252    9.7773 C.ar    1  UNL1        0.0370
      3 C          11.9256   40.2760   10.7973 C.ar    1  UNL1        0.0044
      4 C          12.9363   39.3263   10.9640 C.ar    1  UNL1        0.0150
      5 C          14.0507   39.3190   10.1117 C.ar    1  UNL1        0.0562
      6 C          14.1388   40.2737    9.0926 C.ar    1  UNL1        0.0516
      7 C          15.8619   38.0782   11.4372 C.2     1  UNL1        0.4052
      8 O          15.6298   38.6965   12.5119 O.2     1  UNL1       -0.2261
      9 N          15.1083   38.3602   10.2513 N.am    1  UNL1       -0.2498
     10 H          15.3410   37.8412    9.4478 H       1  UNL1        0.1582
     11 O          16.8642   37.1000   11.3809 O.3     1  UNL1       -0.4417
     12 C          18.0653   37.2100   10.6129 C.3     1  UNL1        0.1378
     13 C          19.1858   36.4060   11.2494 C.3     1  UNL1        0.0437
     14 C          17.8066   36.6567    9.2276 C.3     1  UNL1        0.0437
     15 C          18.4863   38.6632   10.4786 C.3     1  UNL1        0.0437
     16 O          13.2590   42.1649    7.8882 O.3     1  UNL1       -0.4754
     17 C          14.3090   42.1164    6.9299 C.3     1  UNL1        0.2054
     18 C          14.9723   43.4793    6.8051 C.3     1  UNL1        0.0473
     19 C          17.3089   43.8648    6.0138 C.3     1  UNL1        0.0001
     20 C          16.4453   43.4102    7.1750 C.3     1  UNL1        0.0038
@<TRIPOS>BOND
     1    19    20    1
     2    20    18    1
     3    18    17    1
     4    17    16    1
     5     1    16    1
     6     2     3   ar
     7     4     5   ar
     8     5     9    1
     9     7    11    1
    10    12    11    1
    11    12    13    1
    12    12    14    1
    13    12    15    1
    14     6     1   ar
    15     9     7   am
    16     1     2   ar
    17     3     4   ar
    18     5     6   ar
    19     7     8    2
    20     9    10    1
@<TRIPOS>MOLECULE
MolPort-002-787-490 9778215 CSC020585253 CSSS00020585253 LN01186547 MCULE-3160514531 PubChem-17095082 ZINC000009778215 ZINC09778215
 20 20 0 0 0
SMALL
GASTEIGER

@<TRIPOS>ATOM
      1 C          10.1800   41.4055    8.3316 C.ar    1  UNL1        0.1398
      2 C          10.1491   40.9776    9.6683 C.ar    1  UNL1        0.0370
      3 C          11.3399   40.7760   10.3697 C.ar    1  UNL1        0.0044
      4 C          12.5666   41.0007    9.7404 C.ar    1  UNL1        0.0150
      5 C          12.6112   41.4286    8.4050 C.ar    1  UNL1        0.0562
      6 C          11.4132   41.6280    7.7101 C.ar    1  UNL1        0.0516
      7 C          14.1916   42.8201    6.9410 C.2     1  UNL1        0.4052
      8 O          13.3679   43.7627    6.7858 O.2     1  UNL1       -0.2261
      9 N          13.8508   41.6698    7.7250 N.am    1  UNL1       -0.2498
     10 H          14.5402   40.9716    7.8052 H       1  UNL1        0.1582
     11 O          15.4605   42.8788    6.3485 O.3     1  UNL1       -0.4417
     12 C          16.3712   43.9728    6.4843 C.3     1  UNL1        0.1378
     13 C          16.8507   44.0981    7.9201 C.3     1  UNL1        0.0437
     14 C          17.5724   43.7156    5.5994 C.3     1  UNL1        0.0437
     15 C          15.7199   45.2724    6.0438 C.3     1  UNL1        0.0437
     16 O           9.0071   41.6174    7.6022 O.3     1  UNL1       -0.4754
     17 C           7.9162   40.7048    7.6180 C.3     1  UNL1        0.2054
     18 C           6.6213   41.4362    7.9359 C.3     1  UNL1        0.0473
     19 C           4.8232   41.1007    9.6355 C.3     1  UNL1        0.0001
     20 C           6.3008   41.3675    9.4204 C.3     1  UNL1        0.0038
@<TRIPOS>BOND
     1    19    20    1
     2    20    18    1
     3    18    17    1
     4    17    16    1
     5     1    16    1
     6     2     3   ar
     7     4     5   ar
     8     5     9    1
     9     7    11    1
    10    12    11    1
    11    12    13    1
    12    12    14    1
    13    12    15    1
    14     6     1   ar
    15     9     7   am
    16     1     2   ar
    17     3     4   ar
    18     5     6   ar
    19     7     8    2
    20     9    10    1
@<TRIPOS>MOLECULE
MolPort-002-787-490 9778215 CSC020585253 CSSS00020585253 LN01186547 MCULE-3160514531 PubChem-17095082 ZINC000009778215 ZINC09778215
 20 20 0 0 0
SMALL
GASTEIGER

@<TRIPOS>ATOM
      1 C           6.6191   41.5411    9.2662 C.ar    1  UNL1        0.1398
      2 C           6.1301   41.1301    8.0161 C.ar    1  UNL1        0.0370
      3 C           6.9952   40.5740    7.0712 C.ar    1  UNL1        0.0044
      4 C           8.3518   40.4254    7.3696 C.ar    1  UNL1        0.0150
      5 C           8.8529   40.8320    8.6153 C.ar    1  UNL1        0.0562
      6 C           7.9790   41.3881    9.5559 C.ar    1  UNL1        0.0516
      7 C          11.1612   41.7539    9.2469 C.2     1  UNL1        0.4052
      8 O          10.7908   42.9593    9.2167 O.2     1  UNL1       -0.2261
      9 N          10.2389   40.6957    8.9584 N.am    1  UNL1       -0.2498
     10 H          10.5940   39.7784    9.0001 H       1  UNL1        0.1582
     11 O          12.4860   41.4241    9.5644 O.3     1  UNL1       -0.4417
     12 C          13.4040   40.7936    8.6677 C.3     1  UNL1        0.1378
     13 C          14.6843   40.4112    9.3900 C.3     1  UNL1        0.0437
     14 C          12.7643   39.5321    8.1277 C.3     1  UNL1        0.0437
     15 C          13.7261   41.7072    7.4977 C.3     1  UNL1        0.0437
     16 O           5.7802   42.1002   10.2339 O.3     1  UNL1       -0.4754
     17 C           5.4128   41.4124   11.4235 C.3     1  UNL1        0.2054
     18 C           3.9533   40.9900   11.3590 C.3     1  UNL1        0.0473
     19 C           2.5477   41.3312    9.3237 C.3     1  UNL1        0.0001
     20 C           3.1266   41.9871   10.5629 C.3     1  UNL1        0.0038
@<TRIPOS>BOND
     1    19    20    1
     2    20    18    1
     3    18    17    1
     4    17    16    1
     5     1    16    1
     6     2     3   ar
     7     4     5   ar
     8     5     9    1
     9     7    11    1
    10    12    11    1
    11    12    13    1
    12    12    14    1
    13    12    15    1
    14     6     1   ar
    15     9     7   am
    16     1     2   ar
    17     3     4   ar
    18     5     6   ar
    19     7     8    2
    20     9    10    1
@<TRIPOS>MOLECULE
MolPort-002-787-490 9778215 CSC020585253 CSSS00020585253 LN01186547 MCULE-3160514531 PubChem-17095082 ZINC000009778215 ZINC09778215
 20 20 0 0 0
SMALL
GASTEIGER

@<TRIPOS>ATOM
      1 C          14.0530   41.4917    8.0200 C.ar    1  UNL1        0.1398
      2 C          14.7663   40.6555    8.8934 C.ar    1  UNL1        0.0370
      3 C          14.1298   40.0874    9.9992 C.ar    1  UNL1        0.0044
      4 C          12.7790   40.3510   10.2381 C.ar    1  UNL1        0.0150
      5 C          12.0549   41.1849    9.3728 C.ar    1  UNL1        0.0562
      6 C          12.7006   41.7497    8.2675 C.ar    1  UNL1        0.0516
      7 C          10.1001   42.7500    9.9263 C.2     1  UNL1        0.4052
      8 O          10.8337   43.7656   10.0732 O.2     1  UNL1       -0.2261
      9 N          10.6672   41.4789    9.5849 N.am    1  UNL1       -0.2498
     10 H          10.0378   40.7284    9.4854 H       1  UNL1        0.1582
     11 O           8.7118   42.8444   10.0943 O.3     1  UNL1       -0.4417
     12 C           7.7906   43.2034    9.0613 C.3     1  UNL1        0.1378
     13 C           6.4059   42.6562    9.3619 C.3     1  UNL1        0.0437
     14 C           7.7039   44.7134    8.9931 C.3     1  UNL1        0.0437
     15 C           8.2663   42.6885    7.7138 C.3     1  UNL1        0.0437
     16 O          14.6596   42.0750    6.9045 O.3     1  UNL1       -0.4754
     17 C          13.9898   43.0067    6.0639 C.3     1  UNL1        0.2054
     18 C          14.9782   44.0191    5.5063 C.3     1  UNL1        0.0473
     19 C          17.4449   43.9150    5.8791 C.3     1  UNL1        0.0001
     20 C          16.1066   44.2856    6.4896 C.3     1  UNL1        0.0038
@<TRIPOS>BOND
     1    19    20    1
     2    20    18    1
     3    18    17    1
     4    17    16    1
     5     1    16    1
     6     2     3   ar
     7     4     5   ar
     8     5     9    1
     9     7    11    1
    10    12    11    1
    11    12    13    1
    12    12    14    1
    13    12    15    1
    14     6     1   ar
    15     9     7   am
    16     1     2   ar
    17     3     4   ar
    18     5     6   ar
    19     7     8    2
    20     9    10    1
@<TRIPOS>MOLECULE
MolPort-002-787-490 9778215 CSC020585253 CSSS00020585253 LN01186547 MCULE-3160514531 PubChem-17095082 ZINC000009778215 ZINC09778215
 20 20 0 0 0
SMALL
GASTEIGER

@<TRIPOS>ATOM
      1 C          14.4595   40.3941    9.4154 C.ar    1  UNL1        0.1398
      2 C          14.6445   39.6702   10.6039 C.ar    1  UNL1        0.0370
      3 C          13.5612   39.4159   11.4479 C.ar    1  UNL1        0.0044
      4 C          12.2888   39.8825   11.1096 C.ar    1  UNL1        0.0150
      5 C          12.0905   40.6070    9.9246 C.ar    1  UNL1        0.0562
      6 C          13.1816   40.8572    9.0851 C.ar    1  UNL1        0.0516
      7 C          10.3874   42.4736    9.4865 C.2     1  UNL1        0.4052
      8 O          11.1871   43.4012    9.7887 O.2     1  UNL1       -0.2261
      9 N          10.7996   41.1023    9.5433 N.am    1  UNL1       -0.2498
     10 H          10.1257   40.4292    9.2943 H       1  UNL1        0.1582
     11 O           9.0759   42.7662    9.0879 O.3     1  UNL1       -0.4417
     12 C           8.4422   42.2323    7.9226 C.3     1  UNL1        0.1378
     13 C           9.4733   41.8750    6.8660 C.3     1  UNL1        0.0437
     14 C           7.6981   40.9721    8.3104 C.3     1  UNL1        0.0437
     15 C           7.4427   43.2236    7.3522 C.3     1  UNL1        0.0437
     16 O          15.5218   40.6648    8.5489 O.3     1  UNL1       -0.4754
     17 C          15.8705   41.9843    8.1482 C.3     1  UNL1        0.2054
     18 C          17.2390   42.3576    8.6965 C.3     1  UNL1        0.0473
     19 C          17.4805   44.0201    6.8493 C.3     1  UNL1        0.0001
     20 C          17.6005   43.7916    8.3441 C.3     1  UNL1        0.0038
@<TRIPOS>BOND
     1    19    20    1
     2    20    18    1
     3    18    17    1
     4    17    16    1
     5     1    16    1
     6     2     3   ar
     7     4     5   ar
     8     5     9    1
     9     7    11    1
    10    12    11    1
    11    12    13    1
    12    12    14    1
    13    12    15    1
    14     6     1   ar
    15     9     7   am
    16     1     2   ar
    17     3     4   ar
    18     5     6   ar
    19     7     8    2
    20     9    10    1
@<TRIPOS>MOLECULE
MolPort-002-787-490 9778215 CSC020585253 CSSS00020585253 LN01186547 MCULE-3160514531 PubChem-17095082 ZINC000009778215 ZINC09778215
 20 20 0 0 0
SMALL
GASTEIGER

@<TRIPOS>ATOM
      1 C          14.8532   41.5716    7.8714 C.ar    1  UNL1        0.1398
      2 C          15.4474   42.7757    7.4614 C.ar    1  UNL1        0.0370
      3 C          14.8018   43.5987    6.5360 C.ar    1  UNL1        0.0044
      4 C          13.5607   43.2239    6.0158 C.ar    1  UNL1        0.0150
      5 C          12.9562   42.0232    6.4174 C.ar    1  UNL1        0.0562
      6 C          13.6102   41.2049    7.3450 C.ar    1  UNL1        0.0516
      7 C          10.4298   41.6225    6.6003 C.2     1  UNL1        0.4052
      8 O          10.3565   42.0361    7.7898 O.2     1  UNL1       -0.2261
      9 N          11.6833   41.6047    5.9060 N.am    1  UNL1       -0.2498
     10 H          11.6692   41.2698    4.9803 H       1  UNL1        0.1582
     11 O           9.2836   41.1710    5.9319 O.3     1  UNL1       -0.4417
     12 C           8.8385   39.8124    5.9084 C.3     1  UNL1        0.1378
     13 C           9.5189   39.0048    7.0002 C.3     1  UNL1        0.0437
     14 C           7.3450   39.7877    6.1554 C.3     1  UNL1        0.0437
     15 C           9.1117   39.1804    4.5544 C.3     1  UNL1        0.0437
     16 O          15.4721   40.7262    8.7962 O.3     1  UNL1       -0.4754
     17 C          14.8106   39.6118    9.3823 C.3     1  UNL1        0.2054
     18 C          13.7593   40.0845   10.3743 C.3     1  UNL1        0.0473
     19 C          15.0919   38.5852   11.8611 C.3     1  UNL1        0.0001
     20 C          13.7266   39.1953   11.6070 C.3     1  UNL1        0.0038
@<TRIPOS>BOND
     1    19    20    1
     2    20    18    1
     3    18    17    1
     4    17    16    1
     5     1    16    1
     6     2     3   ar
     7     4     5   ar
     8     5     9    1
     9     7    11    1
    10    12    11    1
    11    12    13    1
    12    12    14    1
    13    12    15    1
    14     6     1   ar
    15     9     7   am
    16     1     2   ar
    17     3     4   ar
    18     5     6   ar
    19     7     8    2
    20     9    10    1
@<TRIPOS>MOLECULE
MolPort-002-787-490 9778215 CSC020585253 CSSS00020585253 LN01186547 MCULE-3160514531 PubChem-17095082 ZINC000009778215 ZINC09778215
 20 20 0 0 0
SMALL
GASTEIGER

@<TRIPOS>ATOM
      1 C          14.4463   38.6309    9.5026 C.ar    1  UNL1        0.1398
      2 C          14.6080   39.0894   10.8196 C.ar    1  UNL1        0.0370
      3 C          13.5319   39.6611   11.5021 C.ar    1  UNL1        0.0044
      4 C          12.2899   39.7775   10.8735 C.ar    1  UNL1        0.0150
      5 C          12.1151   39.3232    9.5577 C.ar    1  UNL1        0.0562
      6 C          13.1988   38.7518    8.8816 C.ar    1  UNL1        0.0516
      7 C          10.4203   40.4958    8.0314 C.2     1  UNL1        0.4052
      8 O          11.1668   41.4881    7.8096 O.2     1  UNL1       -0.2261
      9 N          10.8557   39.4254    8.8790 N.am    1  UNL1       -0.2498
     10 H          10.2237   38.6819    9.0093 H       1  UNL1        0.1582
     11 O           9.1466   40.4195    7.4514 O.3     1  UNL1       -0.4417
     12 C           8.7205   39.3875    6.5583 C.3     1  UNL1        0.1378
     13 C           7.2757   39.6006    6.1406 C.3     1  UNL1        0.0437
     14 C           9.5883   39.4312    5.3184 C.3     1  UNL1        0.0437
     15 C           8.8737   38.0209    7.2035 C.3     1  UNL1        0.0437
     16 O          15.5022   38.0535    8.7924 O.3     1  UNL1       -0.4754
     17 C          15.9949   36.7488    9.0725 C.3     1  UNL1        0.2054
     18 C          15.4680   35.7553    8.0488 C.3     1  UNL1        0.0473
     19 C          16.0856   33.3738    8.4748 C.3     1  UNL1        0.0001
     20 C          15.0469   34.4535    8.7116 C.3     1  UNL1        0.0038
@<TRIPOS>BOND
     1    19    20    1
     2    20    18    1
     3    18    17    1
     4    17    16    1
     5     1    16    1
     6     2     3   ar
     7     4     5   ar
     8     5     9    1
     9     7    11    1
    10    12    11    1
    11    12    13    1
    12    12    14    1
    13    12    15    1
    14     6     1   ar
    15     9     7   am
    16     1     2   ar
    17     3     4   ar
    18     5     6   ar
    19     7     8    2
    20     9    10    1
@<TRIPOS>MOLECULE
MolPort-002-787-490 9778215 CSC020585253 CSSS00020585253 LN01186547 MCULE-3160514531 PubChem-17095082 ZINC000009778215 ZINC09778215
 20 20 0 0 0
SMALL
GASTEIGER

@<TRIPOS>ATOM
      1 C           9.8469   40.7536    7.7626 C.ar    1  UNL1        0.1398
      2 C           9.4573   40.5165    6.4348 C.ar    1  UNL1        0.0370
      3 C           8.1031   40.4841    6.0947 C.ar    1  UNL1        0.0044
      4 C           7.1319   40.6883    7.0777 C.ar    1  UNL1        0.0150
      5 C           7.5081   40.9263    8.4082 C.ar    1  UNL1        0.0562
      6 C           8.8671   40.9570    8.7399 C.ar    1  UNL1        0.0516
      7 C           5.6827   42.2782    9.5989 C.2     1  UNL1        0.4052
      8 O           5.7236   43.2334    8.7760 O.2     1  UNL1       -0.2261
      9 N           6.5405   41.1405    9.4451 N.am    1  UNL1       -0.2498
     10 H           6.4569   40.4311   10.1226 H       1  UNL1        0.1582
     11 O           4.7951   42.3101   10.6831 O.3     1  UNL1       -0.4417
     12 C           3.6356   41.4829   10.8091 C.3     1  UNL1        0.1378
     13 C           2.5647   42.1798   11.6304 C.3     1  UNL1        0.0437
     14 C           3.0795   41.2148    9.4267 C.3     1  UNL1        0.0437
     15 C           3.9914   40.1525   11.4497 C.3     1  UNL1        0.0437
     16 O          11.1929   40.7932    8.1358 O.3     1  UNL1       -0.4754
     17 C          11.6201   41.1921    9.4325 C.3     1  UNL1        0.2054
     18 C          12.9498   40.5380    9.7741 C.3     1  UNL1        0.0473
     19 C          14.1970   39.1261   11.4129 C.3     1  UNL1        0.0001
     20 C          12.8825   39.8212   11.1131 C.3     1  UNL1        0.0038
@<TRIPOS>BOND
     1    19    20    1
     2    20    18    1
     3    18    17    1
     4    17    16    1
     5     1    16    1
     6     2     3   ar
     7     4     5   ar
     8     5     9    1
     9     7    11    1
    10    12    11    1
    11    12    13    1
    12    12    14    1
    13    12    15    1
    14     6     1   ar
    15     9     7   am
    16     1     2   ar
    17     3     4   ar
    18     5     6   ar
    19     7     8    2
    20     9    10    1
@<TRIPOS>MOLECULE
MolPort-002-787-490 9778215 CSC020585253 CSSS00020585253 LN01186547 MCULE-3160514531 PubChem-17095082 ZINC000009778215 ZINC09778215
 20 20 0 0 0
SMALL
GASTEIGER

@<TRIPOS>ATOM
      1 C          10.1684   41.0077    8.7968 C.ar    1  UNL1        0.1398
      2 C          11.0964   40.8158    9.8326 C.ar    1  UNL1        0.0370
      3 C          10.7253   41.0421   11.1598 C.ar    1  UNL1        0.0044
      4 C           9.4267   41.4608   11.4593 C.ar    1  UNL1        0.0150
      5 C           8.4898   41.6562   10.4334 C.ar    1  UNL1        0.0562
      6 C           8.8704   41.4271    9.1066 C.ar    1  UNL1        0.0516
      7 C           5.9819   41.8015    9.9175 C.2     1  UNL1        0.4052
      8 O           6.0632   41.1073    8.8674 O.2     1  UNL1       -0.2261
      9 N           7.1477   42.0853   10.7012 N.am    1  UNL1       -0.2498
     10 H           7.0132   42.6326   11.5084 H       1  UNL1        0.1582
     11 O           4.7464   42.3105   10.3404 O.3     1  UNL1       -0.4417
     12 C           3.6087   41.5109   10.6732 C.3     1  UNL1        0.1378
     13 C           4.0386   40.2140   11.3367 C.3     1  UNL1        0.0437
     14 C           2.7427   42.2821   11.6465 C.3     1  UNL1        0.0437
     15 C           2.7844   41.2066    9.4342 C.3     1  UNL1        0.0437
     16 O          10.5073   40.7892    7.4589 O.3     1  UNL1       -0.4754
     17 C          11.0779   41.7988    6.6352 C.3     1  UNL1        0.2054
     18 C          12.5641   41.5423    6.4399 C.3     1  UNL1        0.0473
     19 C          14.1078   43.4296    5.9016 C.3     1  UNL1        0.0001
     20 C          13.3982   42.6776    7.0115 C.3     1  UNL1        0.0038
@<TRIPOS>BOND
     1    19    20    1
     2    20    18    1
     3    18    17    1
     4    17    16    1
     5     1    16    1
     6     2     3   ar
     7     4     5   ar
     8     5     9    1
     9     7    11    1
    10    12    11    1
    11    12    13    1
    12    12    14    1
    13    12    15    1
    14     6     1   ar
    15     9     7   am
    16     1     2   ar
    17     3     4   ar
    18     5     6   ar
    19     7     8    2
    20     9    10    1
@<TRIPOS>MOLECULE
MolPort-002-787-490 9778215 CSC020585253 CSSS00020585253 LN01186547 MCULE-3160514531 PubChem-17095082 ZINC000009778215 ZINC09778215
 20 20 0 0 0
SMALL
GASTEIGER

@<TRIPOS>ATOM
      1 C          11.1966   40.9712    8.7537 C.ar    1  UNL1        0.1398
      2 C          11.7358   42.2649    8.8345 C.ar    1  UNL1        0.0370
      3 C          11.1112   43.2392    9.6163 C.ar    1  UNL1        0.0044
      4 C           9.9462   42.9268   10.3209 C.ar    1  UNL1        0.0150
      5 C           9.3973   41.6377   10.2486 C.ar    1  UNL1        0.0562
      6 C          10.0297   40.6679    9.4629 C.ar    1  UNL1        0.0516
      7 C           6.8812   41.7810   10.7236 C.2     1  UNL1        0.4052
      8 O           6.6641   42.6300    9.8163 O.2     1  UNL1       -0.2261
      9 N           8.2031   41.2792   10.9574 N.am    1  UNL1       -0.2498
     10 H           8.3018   40.6186   11.6807 H       1  UNL1        0.1582
     11 O           5.8312   41.3097   11.5235 O.3     1  UNL1       -0.4417
     12 C           4.4880   41.1183   11.0720 C.3     1  UNL1        0.1378
     13 C           3.6406   42.3428   11.3713 C.3     1  UNL1        0.0437
     14 C           4.5068   40.9041    9.5734 C.3     1  UNL1        0.0437
     15 C           3.8710   39.8932   11.7244 C.3     1  UNL1        0.0437
     16 O          11.7973   39.9734    7.9814 O.3     1  UNL1       -0.4754
     17 C          13.1703   39.6243    8.1088 C.3     1  UNL1        0.2054
     18 C          13.7062   40.0762    9.4584 C.3     1  UNL1        0.0473
     19 C          15.7968   41.2540    8.7681 C.3     1  UNL1        0.0001
     20 C          15.2259   40.0454    9.4852 C.3     1  UNL1        0.0038
@<TRIPOS>BOND
     1    19    20    1
     2    20    18    1
     3    18    17    1
     4    17    16    1
     5     1    16    1
     6     2     3   ar
     7     4     5   ar
     8     5     9    1
     9     7    11    1
    10    12    11    1
    11    12    13    1
    12    12    14    1
    13    12    15    1
    14     6     1   ar
    15     9     7   am
    16     1     2   ar
    17     3     4   ar
    18     5     6   ar
    19     7     8    2
    20     9    10    1
