@<TRIPOS>MOLECULE
Molport-047-071-756 PubChem-132766831
 33 36 0 0 0
SMALL
GASTEIGER

@<TRIPOS>ATOM
      1 C          12.3969   40.6369    7.9475 C.ar    1  UNL1        0.1368
      2 C          11.4332   41.3156    8.6930 C.ar    1  UNL1        0.0492
      3 C          10.7690   40.6304    9.7101 C.ar    1  UNL1        0.0644
      4 C          12.0101   38.6781    9.2202 C.ar    1  UNL1        0.1406
      5 C          12.3230   37.2533    9.5035 C.3     1  UNL1        0.0737
      6 N          11.0690   39.3257    9.9548 N.ar    1  UNL1       -0.2348
      7 N          12.6656   39.3321    8.2263 N.ar    1  UNL1       -0.2159
      8 C           9.7335   41.3381   10.5193 C.3     1  UNL1        0.0603
      9 C           9.7537   40.8549   11.9722 C.3     1  UNL1        0.0094
     10 C           8.6572   41.4970   12.8373 C.3     1  UNL1        0.0220
     11 C           7.6666   42.3379   12.0300 C.3     1  UNL1        0.0937
     12 C           8.3434   41.1465    9.9072 C.3     1  UNL1        0.0996
     13 C           5.9116   41.4576   10.4219 C.2     1  UNL1        0.2492
     14 N           7.2899   41.6324   10.8044 N.am    1  UNL1       -0.2757
     15 O           5.6300   41.2492    9.2116 O.2     1  UNL1       -0.2699
     16 C           4.7929   41.4973   11.3825 C.2     1  UNL1        0.0580
     17 C           3.6074   42.0379   11.1203 C.2     1  UNL1        0.0078
     18 C           2.5271   42.0511   12.1104 C.ar    1  UNL1        0.0398
     19 C           2.1574   41.0264   12.9661 C.ar    1  UNL1        0.1216
     20 C          -0.2133   43.5098   13.9038 C.3     1  UNL1        0.1538
     21 C           1.6826   43.1121   12.3556 C.ar    1  UNL1        0.0967
     22 N           1.1188   41.4680   13.7019 N.ar    1  UNL1       -0.1676
     23 N           0.8489   42.7074   13.3277 N.ar    1  UNL1       -0.2473
     24 N          13.0851   41.3315    6.9005 N.pl3   1  UNL1       -0.2679
     25 H          12.7262   41.2313    5.9893 H       1  UNL1        0.1565
     26 C          15.4479   45.4299    5.7425 C.3     1  UNL1        0.0522
     27 C          15.3972   44.1479    6.4923 C.ar    1  UNL1        0.0634
     28 C          16.4602   43.7793    7.3146 C.ar    1  UNL1        0.0296
     29 C          16.3753   42.5697    8.0012 C.ar    1  UNL1        0.0634
     30 C          17.4864   42.1386    8.8885 C.3     1  UNL1        0.0522
     31 C          14.2454   42.1580    7.0521 C.ar    1  UNL1        0.2211
     32 N          15.2762   41.7844    7.8592 N.ar    1  UNL1       -0.2179
     33 N          14.3144   43.3353    6.3760 N.ar    1  UNL1       -0.2179
@<TRIPOS>BOND
     1    26    27    1
     2    27    33   ar
     3    28    29   ar
     4    30    29    1
     5    31    32   ar
     6    31    24    1
     7     1     7   ar
     8     2     3   ar
     9     4     6   ar
    10     5     4    1
    11     8     3    1
    12     8     9    1
    13     9    10    1
    14    10    11    1
    15    11    14    1
    16    12    14    1
    17    12     8    1
    18    13    16    1
    19    17    18    1
    20    18    19   ar
    21    20    23    1
    22    24     1    1
    23    14    13   am
    24    23    22   ar
    25    23    21   ar
    26    27    28   ar
    27    29    32   ar
    28    31    33   ar
    29     1     2   ar
    30     3     6   ar
    31     4     7   ar
    32    13    15    2
    33    16    17    2
    34    19    22   ar
    35    21    18   ar
    36    24    25    1
@<TRIPOS>MOLECULE
Molport-047-071-756 PubChem-132766831
 33 36 0 0 0
SMALL
GASTEIGER

@<TRIPOS>ATOM
      1 C          10.8021   41.8117    8.0253 C.ar    1  UNL1        0.1368
      2 C           9.4409   42.0965    7.9200 C.ar    1  UNL1        0.0492
      3 C           8.6130   41.8188    9.0075 C.ar    1  UNL1        0.0644
      4 C          10.4695   41.0084   10.2276 C.ar    1  UNL1        0.1406
      5 C          11.0268   40.4205   11.4734 C.3     1  UNL1        0.0737
      6 N           9.1416   41.2803   10.1400 N.ar    1  UNL1       -0.2348
      7 N          11.2885   41.2734    9.1769 N.ar    1  UNL1       -0.2159
      8 C           7.1531   42.1153    8.9152 C.3     1  UNL1        0.0603
      9 C           6.8994   43.6245    8.9698 C.3     1  UNL1        0.0094
     10 C           5.4055   43.9866    8.9529 C.3     1  UNL1        0.0220
     11 C           4.4879   42.7683    9.0710 C.3     1  UNL1        0.0937
     12 C           6.3835   41.3992   10.0281 C.3     1  UNL1        0.0996
     13 C           4.1411   41.3453   11.1436 C.2     1  UNL1        0.2492
     14 N           4.9918   41.8568   10.0990 N.am    1  UNL1       -0.2757
     15 O           4.4589   40.2753   11.7282 O.2     1  UNL1       -0.2699
     16 C           2.9049   42.0187   11.5842 C.2     1  UNL1        0.0580
     17 C           2.2699   41.7386   12.7176 C.2     1  UNL1        0.0078
     18 C           1.0436   42.4381   13.1107 C.ar    1  UNL1        0.0398
     19 C           0.9177   43.7617   13.4996 C.ar    1  UNL1        0.1216
     20 C          -2.4725   42.7096   13.7565 C.3     1  UNL1        0.1538
     21 C          -0.2142   41.8774   13.1587 C.ar    1  UNL1        0.0967
     22 N          -0.3832   43.9819   13.7717 N.ar    1  UNL1       -0.1676
     23 N          -1.0419   42.8541   13.5647 N.ar    1  UNL1       -0.2473
     24 N          11.6613   42.0933    6.9141 N.pl3   1  UNL1       -0.2679
     25 H          11.2728   41.9937    6.0149 H       1  UNL1        0.1565
     26 C          15.1217   45.2589    5.6008 C.3     1  UNL1        0.0522
     27 C          14.7160   44.0413    6.3500 C.ar    1  UNL1        0.0634
     28 C          15.6586   43.3353    7.0950 C.ar    1  UNL1        0.0296
     29 C          15.2393   42.1987    7.7837 C.ar    1  UNL1        0.0634
     30 C          16.2119   41.4168    8.5901 C.3     1  UNL1        0.0522
     31 C          13.0313   42.5058    6.9854 C.ar    1  UNL1        0.2211
     32 N          13.9409   41.8057    7.7176 N.ar    1  UNL1       -0.2179
     33 N          13.4260   43.6165    6.3083 N.ar    1  UNL1       -0.2179
@<TRIPOS>BOND
     1    26    27    1
     2    27    33   ar
     3    28    29   ar
     4    30    29    1
     5    31    32   ar
     6    31    24    1
     7     1     7   ar
     8     2     3   ar
     9     4     6   ar
    10     5     4    1
    11     8     3    1
    12     8     9    1
    13     9    10    1
    14    10    11    1
    15    11    14    1
    16    12    14    1
    17    12     8    1
    18    13    16    1
    19    17    18    1
    20    18    19   ar
    21    20    23    1
    22    24     1    1
    23    14    13   am
    24    23    22   ar
    25    23    21   ar
    26    27    28   ar
    27    29    32   ar
    28    31    33   ar
    29     1     2   ar
    30     3     6   ar
    31     4     7   ar
    32    13    15    2
    33    16    17    2
    34    19    22   ar
    35    21    18   ar
    36    24    25    1
@<TRIPOS>MOLECULE
Molport-047-071-756 PubChem-132766831
 33 36 0 0 0
SMALL
GASTEIGER

@<TRIPOS>ATOM
      1 C           3.3736   42.0281   11.4817 C.ar    1  UNL1        0.1368
      2 C           4.6818   41.5457   11.5101 C.ar    1  UNL1        0.0492
      3 C           5.5661   41.9501   10.5103 C.ar    1  UNL1        0.0644
      4 C           3.8645   43.2604    9.5204 C.ar    1  UNL1        0.1406
      5 C           3.4213   44.1866    8.4463 C.3     1  UNL1        0.0737
      6 N           5.1418   42.7989    9.5347 N.ar    1  UNL1       -0.2348
      7 N           2.9917   42.8756   10.4874 N.ar    1  UNL1       -0.2159
      8 C           6.9705   41.4448   10.5218 C.3     1  UNL1        0.0603
      9 C           7.7577   42.0509   11.6870 C.3     1  UNL1        0.0094
     10 C           9.2340   41.6225   11.7058 C.3     1  UNL1        0.0220
     11 C           9.6497   40.8348   10.4620 C.3     1  UNL1        0.0937
     12 C           7.6643   41.7427    9.1901 C.3     1  UNL1        0.0996
     13 C           9.9283   41.7672    8.1181 C.2     1  UNL1        0.2492
     14 N           9.1031   41.4666    9.2605 N.am    1  UNL1       -0.2757
     15 O           9.3898   41.8976    6.9865 O.2     1  UNL1       -0.2699
     16 C          11.3903   41.9459    8.1993 C.2     1  UNL1        0.0580
     17 C          12.1661   42.2063    7.1521 C.2     1  UNL1        0.0078
     18 C          13.6155   42.3761    7.2862 C.ar    1  UNL1        0.0398
     19 C          14.4982   41.5600    7.9747 C.ar    1  UNL1        0.1216
     20 C          16.7549   44.0183    6.7373 C.3     1  UNL1        0.1538
     21 C          14.3529   43.4017    6.7354 C.ar    1  UNL1        0.0967
     22 N          15.7299   42.0878    7.8360 N.ar    1  UNL1       -0.1676
     23 N          15.6271   43.1804    7.0981 N.ar    1  UNL1       -0.2473
     24 N           2.4572   41.6190   12.5041 N.pl3   1  UNL1       -0.2679
     25 H           2.5656   40.7074   12.8598 H       1  UNL1        0.1565
     26 C          -2.3014   42.1529   13.3934 C.3     1  UNL1        0.0522
     27 C          -0.9128   42.6726   13.4929 C.ar    1  UNL1        0.0634
     28 C          -0.6698   43.8970   14.1125 C.ar    1  UNL1        0.0296
     29 C           0.6459   44.3503   14.1860 C.ar    1  UNL1        0.0634
     30 C           0.9491   45.6504   14.8383 C.3     1  UNL1        0.0522
     31 C           1.3984   42.4088   13.0586 C.ar    1  UNL1        0.2211
     32 N           1.6514   43.6032   13.6610 N.ar    1  UNL1       -0.2179
     33 N           0.1198   41.9540   12.9795 N.ar    1  UNL1       -0.2179
@<TRIPOS>BOND
     1    26    27    1
     2    27    33   ar
     3    28    29   ar
     4    30    29    1
     5    31    32   ar
     6    31    24    1
     7     1     7   ar
     8     2     3   ar
     9     4     6   ar
    10     5     4    1
    11     8     3    1
    12     8     9    1
    13     9    10    1
    14    10    11    1
    15    11    14    1
    16    12    14    1
    17    12     8    1
    18    13    16    1
    19    17    18    1
    20    18    19   ar
    21    20    23    1
    22    24     1    1
    23    14    13   am
    24    23    22   ar
    25    23    21   ar
    26    27    28   ar
    27    29    32   ar
    28    31    33   ar
    29     1     2   ar
    30     3     6   ar
    31     4     7   ar
    32    13    15    2
    33    16    17    2
    34    19    22   ar
    35    21    18   ar
    36    24    25    1
@<TRIPOS>MOLECULE
Molport-047-071-756 PubChem-132766831
 33 36 0 0 0
SMALL
GASTEIGER

@<TRIPOS>ATOM
      1 C           2.9654   41.8694   11.7924 C.ar    1  UNL1        0.1368
      2 C           4.2837   42.2710   11.5780 C.ar    1  UNL1        0.0492
      3 C           4.8245   42.1372   10.2994 C.ar    1  UNL1        0.0644
      4 C           2.7825   41.2357    9.5184 C.ar    1  UNL1        0.1406
      5 C           1.9702   40.6762    8.4070 C.3     1  UNL1        0.0737
      6 N           4.0651   41.6224    9.2941 N.ar    1  UNL1       -0.2348
      7 N           2.2418   41.3600   10.7582 N.ar    1  UNL1       -0.2159
      8 C           6.2338   42.5602   10.0488 C.3     1  UNL1        0.0603
      9 C           6.6539   42.2316    8.6134 C.3     1  UNL1        0.0094
     10 C           8.1224   42.5786    8.3197 C.3     1  UNL1        0.0220
     11 C           8.9025   43.0044    9.5649 C.3     1  UNL1        0.0937
     12 C           7.1837   41.9013   11.0523 C.3     1  UNL1        0.0996
     13 C           9.6193   41.4961   11.4760 C.2     1  UNL1        0.2492
     14 N           8.5871   42.1160   10.6842 N.am    1  UNL1       -0.2757
     15 O           9.3504   41.1095   12.6448 O.2     1  UNL1       -0.2699
     16 C          10.9925   41.2731   10.9858 C.2     1  UNL1        0.0580
     17 C          11.6879   40.1618   11.2041 C.2     1  UNL1        0.0078
     18 C          13.0507   39.9890   10.6939 C.ar    1  UNL1        0.0398
     19 C          13.5728   40.4758    9.5066 C.ar    1  UNL1        0.1216
     20 C          16.4292   38.7938   10.8023 C.3     1  UNL1        0.1538
     21 C          14.0585   39.2962   11.3290 C.ar    1  UNL1        0.0967
     22 N          14.8593   40.0820    9.4383 N.ar    1  UNL1       -0.1676
     23 N          15.1324   39.3829   10.5270 N.ar    1  UNL1       -0.2473
     24 N           2.4002   42.0027   13.1020 N.pl3   1  UNL1       -0.2679
     25 H           2.9623   41.7217   13.8599 H       1  UNL1        0.1565
     26 C          -2.3753   41.1660   13.5653 C.3     1  UNL1        0.0522
     27 C          -1.2252   42.1039   13.6412 C.ar    1  UNL1        0.0634
     28 C          -1.4324   43.4321   14.0086 C.ar    1  UNL1        0.0296
     29 C          -0.3287   44.2807   14.0684 C.ar    1  UNL1        0.0634
     30 C          -0.5052   45.7042   14.4558 C.3     1  UNL1        0.0522
     31 C           1.0958   42.5057   13.4149 C.ar    1  UNL1        0.2211
     32 N           0.9090   43.8061   13.7723 N.ar    1  UNL1       -0.2179
     33 N           0.0283   41.6664   13.3522 N.ar    1  UNL1       -0.2179
@<TRIPOS>BOND
     1    26    27    1
     2    27    33   ar
     3    28    29   ar
     4    30    29    1
     5    31    32   ar
     6    31    24    1
     7     1     7   ar
     8     2     3   ar
     9     4     6   ar
    10     5     4    1
    11     8     3    1
    12     8     9    1
    13     9    10    1
    14    10    11    1
    15    11    14    1
    16    12    14    1
    17    12     8    1
    18    13    16    1
    19    17    18    1
    20    18    19   ar
    21    20    23    1
    22    24     1    1
    23    14    13   am
    24    23    22   ar
    25    23    21   ar
    26    27    28   ar
    27    29    32   ar
    28    31    33   ar
    29     1     2   ar
    30     3     6   ar
    31     4     7   ar
    32    13    15    2
    33    16    17    2
    34    19    22   ar
    35    21    18   ar
    36    24    25    1
@<TRIPOS>MOLECULE
Molport-047-071-756 PubChem-132766831
 33 36 0 0 0
SMALL
GASTEIGER

@<TRIPOS>ATOM
      1 C          16.0336   42.0421    8.0940 C.ar    1  UNL1        0.1368
      2 C          14.7752   41.4432    8.1448 C.ar    1  UNL1        0.0492
      3 C          13.7294   42.0212    7.4255 C.ar    1  UNL1        0.0644
      4 C          15.1837   43.7193    6.6550 C.ar    1  UNL1        0.1406
      5 C          15.4061   44.9489    5.8508 C.3     1  UNL1        0.0737
      6 N          13.9523   43.1475    6.6947 N.ar    1  UNL1       -0.2348
      7 N          16.2122   43.1679    7.3502 N.ar    1  UNL1       -0.2159
      8 C          12.3745   41.3965    7.4670 C.3     1  UNL1        0.0603
      9 C          11.5336   41.8394    6.2663 C.3     1  UNL1        0.0094
     10 C          10.1004   41.2843    6.2954 C.3     1  UNL1        0.0220
     11 C           9.7590   40.5627    7.6004 C.3     1  UNL1        0.0937
     12 C          11.6615   41.7358    8.7785 C.3     1  UNL1        0.0996
     13 C           9.4074   41.6471    9.8679 C.2     1  UNL1        0.2492
     14 N          10.2521   41.3313    8.7439 N.am    1  UNL1       -0.2757
     15 O           9.9360   41.9115   10.9806 O.2     1  UNL1       -0.2699
     16 C           7.9352   41.6913    9.7876 C.2     1  UNL1        0.0580
     17 C           7.2512   42.6834    9.2269 C.2     1  UNL1        0.0078
     18 C           5.7868   42.6794    9.1720 C.ar    1  UNL1        0.0398
     19 C           4.9521   43.7505    8.8978 C.ar    1  UNL1        0.1216
     20 C           2.5355   41.1840    9.3877 C.3     1  UNL1        0.1538
     21 C           4.9833   41.5814    9.3904 C.ar    1  UNL1        0.0967
     22 N           3.6837   43.2996    8.9519 N.ar    1  UNL1       -0.1676
     23 N           3.7190   42.0106    9.2453 N.ar    1  UNL1       -0.2473
     24 N          17.1147   41.4563    8.8292 N.pl3   1  UNL1       -0.2679
     25 H          17.9868   41.9099    8.7752 H       1  UNL1        0.1565
     26 C          19.2720   37.3957   10.4347 C.3     1  UNL1        0.0522
     27 C          18.0928   38.2998   10.4181 C.ar    1  UNL1        0.0634
     28 C          16.9642   37.9870   11.1734 C.ar    1  UNL1        0.0296
     29 C          15.8788   38.8599   11.1315 C.ar    1  UNL1        0.0634
     30 C          14.6558   38.5642   11.9218 C.3     1  UNL1        0.0522
     31 C          17.0487   40.2739    9.6354 C.ar    1  UNL1        0.2211
     32 N          15.9391   39.9816   10.3680 N.ar    1  UNL1       -0.2179
     33 N          18.1151   39.4315    9.6664 N.ar    1  UNL1       -0.2179
@<TRIPOS>BOND
     1    26    27    1
     2    27    33   ar
     3    28    29   ar
     4    30    29    1
     5    31    32   ar
     6    31    24    1
     7     1     7   ar
     8     2     3   ar
     9     4     6   ar
    10     5     4    1
    11     8     3    1
    12     8     9    1
    13     9    10    1
    14    10    11    1
    15    11    14    1
    16    12    14    1
    17    12     8    1
    18    13    16    1
    19    17    18    1
    20    18    19   ar
    21    20    23    1
    22    24     1    1
    23    14    13   am
    24    23    22   ar
    25    23    21   ar
    26    27    28   ar
    27    29    32   ar
    28    31    33   ar
    29     1     2   ar
    30     3     6   ar
    31     4     7   ar
    32    13    15    2
    33    16    17    2
    34    19    22   ar
    35    21    18   ar
    36    24    25    1
@<TRIPOS>MOLECULE
Molport-047-071-756 PubChem-132766831
 33 36 0 0 0
SMALL
GASTEIGER

@<TRIPOS>ATOM
      1 C          14.6568   39.8986    9.6482 C.ar    1  UNL1        0.1368
      2 C          13.5282   40.7158    9.7071 C.ar    1  UNL1        0.0492
      3 C          12.3401   40.1810   10.2048 C.ar    1  UNL1        0.0644
      4 C          13.4104   38.1018   10.5560 C.ar    1  UNL1        0.1406
      5 C          13.3485   36.6895   11.0140 C.3     1  UNL1        0.0737
      6 N          12.3028   38.8853   10.6195 N.ar    1  UNL1       -0.2348
      7 N          14.5749   38.6083   10.0737 N.ar    1  UNL1       -0.2159
      8 C          11.1204   41.0384   10.2756 C.3     1  UNL1        0.0603
      9 C          10.4702   40.9471   11.6590 C.3     1  UNL1        0.0094
     10 C           9.1660   41.7536   11.7675 C.3     1  UNL1        0.0220
     11 C           8.6962   42.3243   10.4282 C.3     1  UNL1        0.0937
     12 C          10.1205   40.6491    9.1837 C.3     1  UNL1        0.0996
     13 C           7.7407   41.0010    8.4847 C.2     1  UNL1        0.2492
     14 N           8.8278   41.3145    9.3772 N.am    1  UNL1       -0.2757
     15 O           7.9932   40.4783    7.3664 O.2     1  UNL1       -0.2699
     16 C           6.3246   41.2497    8.8142 C.2     1  UNL1        0.0580
     17 C           5.8726   41.4462   10.0486 C.2     1  UNL1        0.0078
     18 C           4.4540   41.6903   10.3233 C.ar    1  UNL1        0.0398
     19 C           3.4116   41.7110    9.4111 C.ar    1  UNL1        0.1216
     20 C           1.6284   42.3977   12.4136 C.3     1  UNL1        0.1538
     21 C           3.9144   41.9458   11.5653 C.ar    1  UNL1        0.0967
     22 N           2.2804   41.9722   10.0945 N.ar    1  UNL1       -0.1676
     23 N           2.5954   42.1090   11.3716 N.ar    1  UNL1       -0.2473
     24 N          15.8823   40.4380    9.1387 N.pl3   1  UNL1       -0.2679
     25 H          16.7071   39.9422    9.3464 H       1  UNL1        0.1565
     26 C          13.9781   43.5219    5.8853 C.3     1  UNL1        0.0522
     27 C          15.1019   43.1308    6.7754 C.ar    1  UNL1        0.0634
     28 C          16.2518   43.9160    6.8319 C.ar    1  UNL1        0.0296
     29 C          17.2837   43.5161    7.6787 C.ar    1  UNL1        0.0634
     30 C          18.5270   44.3245    7.7691 C.3     1  UNL1        0.0522
     31 C          16.0229   41.6297    8.3560 C.ar    1  UNL1        0.2211
     32 N          17.1526   42.3867    8.4217 N.ar    1  UNL1       -0.2179
     33 N          15.0081   42.0075    7.5342 N.ar    1  UNL1       -0.2179
@<TRIPOS>BOND
     1    26    27    1
     2    27    33   ar
     3    28    29   ar
     4    30    29    1
     5    31    32   ar
     6    31    24    1
     7     1     7   ar
     8     2     3   ar
     9     4     6   ar
    10     5     4    1
    11     8     3    1
    12     8     9    1
    13     9    10    1
    14    10    11    1
    15    11    14    1
    16    12    14    1
    17    12     8    1
    18    13    16    1
    19    17    18    1
    20    18    19   ar
    21    20    23    1
    22    24     1    1
    23    14    13   am
    24    23    22   ar
    25    23    21   ar
    26    27    28   ar
    27    29    32   ar
    28    31    33   ar
    29     1     2   ar
    30     3     6   ar
    31     4     7   ar
    32    13    15    2
    33    16    17    2
    34    19    22   ar
    35    21    18   ar
    36    24    25    1
@<TRIPOS>MOLECULE
Molport-047-071-756 PubChem-132766831
 33 36 0 0 0
SMALL
GASTEIGER

@<TRIPOS>ATOM
      1 C          16.4338   41.8600    8.4218 C.ar    1  UNL1        0.1368
      2 C          15.1596   41.2983    8.3455 C.ar    1  UNL1        0.0492
      3 C          14.2019   41.9181    7.5429 C.ar    1  UNL1        0.0644
      4 C          15.7691   43.5832    6.9401 C.ar    1  UNL1        0.1406
      5 C          16.1002   44.8175    6.1818 C.3     1  UNL1        0.0737
      6 N          14.5237   43.0479    6.8558 N.ar    1  UNL1       -0.2348
      7 N          16.7125   42.9910    7.7176 N.ar    1  UNL1       -0.2159
      8 C          12.8318   41.3336    7.4480 C.3     1  UNL1        0.0603
      9 C          12.0612   41.9404    6.2721 C.3     1  UNL1        0.0094
     10 C          10.6152   41.4289    6.1696 C.3     1  UNL1        0.0220
     11 C          10.1935   40.5684    7.3621 C.3     1  UNL1        0.0937
     12 C          12.0645   41.5365    8.7571 C.3     1  UNL1        0.0996
     13 C           9.7587   41.3868    9.7248 C.2     1  UNL1        0.2492
     14 N          10.6491   41.1811    8.6105 N.am    1  UNL1       -0.2757
     15 O          10.2390   41.5017   10.8840 O.2     1  UNL1       -0.2699
     16 C           8.2936   41.4842    9.5838 C.2     1  UNL1        0.0580
     17 C           7.6440   42.6191    9.3460 C.2     1  UNL1        0.0078
     18 C           6.1853   42.6624    9.2134 C.ar    1  UNL1        0.0398
     19 C           5.4130   43.7171    8.7548 C.ar    1  UNL1        0.1216
     20 C           2.8643   41.3324    9.4509 C.3     1  UNL1        0.1538
     21 C           5.3243   41.6348    9.5323 C.ar    1  UNL1        0.0967
     22 N           4.1247   43.3254    8.8000 N.ar    1  UNL1       -0.1676
     23 N           4.0887   42.0874    9.2636 N.ar    1  UNL1       -0.2473
     24 N          17.4248   41.2313    9.2432 N.pl3   1  UNL1       -0.2679
     25 H          18.2839   41.7017    9.3428 H       1  UNL1        0.1565
     26 C          14.6684   38.2624   11.9467 C.3     1  UNL1        0.0522
     27 C          15.9503   38.5379   11.2474 C.ar    1  UNL1        0.0634
     28 C          16.9760   37.5949   11.2754 C.ar    1  UNL1        0.0296
     29 C          18.1629   37.8901   10.6076 C.ar    1  UNL1        0.0634
     30 C          19.2817   36.9124   10.6122 C.3     1  UNL1        0.0522
     31 C          17.2859   39.9837    9.9337 C.ar    1  UNL1        0.2211
     32 N          18.2969   39.0722    9.9522 N.ar    1  UNL1       -0.2179
     33 N          16.1223   39.7094   10.5809 N.ar    1  UNL1       -0.2179
@<TRIPOS>BOND
     1    26    27    1
     2    27    33   ar
     3    28    29   ar
     4    30    29    1
     5    31    32   ar
     6    31    24    1
     7     1     7   ar
     8     2     3   ar
     9     4     6   ar
    10     5     4    1
    11     8     3    1
    12     8     9    1
    13     9    10    1
    14    10    11    1
    15    11    14    1
    16    12    14    1
    17    12     8    1
    18    13    16    1
    19    17    18    1
    20    18    19   ar
    21    20    23    1
    22    24     1    1
    23    14    13   am
    24    23    22   ar
    25    23    21   ar
    26    27    28   ar
    27    29    32   ar
    28    31    33   ar
    29     1     2   ar
    30     3     6   ar
    31     4     7   ar
    32    13    15    2
    33    16    17    2
    34    19    22   ar
    35    21    18   ar
    36    24    25    1
@<TRIPOS>MOLECULE
Molport-047-071-756 PubChem-132766831
 33 36 0 0 0
SMALL
GASTEIGER

@<TRIPOS>ATOM
      1 C           9.9033   41.7567    8.3457 C.ar    1  UNL1        0.1368
      2 C           8.5236   41.9176    8.2211 C.ar    1  UNL1        0.0492
      3 C           7.7344   41.8395    9.3685 C.ar    1  UNL1        0.0644
      4 C           9.6631   41.4551   10.6819 C.ar    1  UNL1        0.1406
      5 C          10.2802   41.2051   12.0103 C.3     1  UNL1        0.0737
      6 N           8.3177   41.6097   10.5764 N.ar    1  UNL1       -0.2348
      7 N          10.4448   41.5287    9.5735 N.ar    1  UNL1       -0.2159
      8 C           6.2556   42.0080    9.2570 C.3     1  UNL1        0.0603
      9 C           5.8930   43.4716    8.9900 C.3     1  UNL1        0.0094
     10 C           4.3765   43.7182    8.9389 C.3     1  UNL1        0.0220
     11 C           3.5522   42.4953    9.3456 C.3     1  UNL1        0.0937
     12 C           5.5559   41.5017   10.5210 C.3     1  UNL1        0.0996
     13 C           3.3391   41.5397   11.6871 C.2     1  UNL1        0.2492
     14 N           4.1356   41.8674   10.5318 N.am    1  UNL1       -0.2757
     15 O           3.7424   40.6478   12.4804 O.2     1  UNL1       -0.2699
     16 C           2.0631   42.2070   12.0071 C.2     1  UNL1        0.0580
     17 C           1.5092   42.2106   13.2153 C.2     1  UNL1        0.0078
     18 C           0.2385   42.8900   13.4818 C.ar    1  UNL1        0.0398
     19 C          -1.0393   42.3974   13.2725 C.ar    1  UNL1        0.1216
     20 C          -1.8163   45.6180   14.5729 C.3     1  UNL1        0.1538
     21 C           0.1063   44.1615   13.9964 C.ar    1  UNL1        0.0967
     22 N          -1.9092   43.3528   13.6536 N.ar    1  UNL1       -0.1676
     23 N          -1.2139   44.3935   14.0808 N.ar    1  UNL1       -0.2473
     24 N          10.7230   41.8352    7.1735 N.pl3   1  UNL1       -0.2679
     25 H          10.2641   41.7729    6.3047 H       1  UNL1        0.1565
     26 C          15.0813   40.6111    8.9699 C.3     1  UNL1        0.0522
     27 C          14.2661   41.4042    8.0135 C.ar    1  UNL1        0.0634
     28 C          14.8894   42.2743    7.1211 C.ar    1  UNL1        0.0296
     29 C          14.0906   43.0005    6.2400 C.ar    1  UNL1        0.0634
     30 C          14.7146   43.9394    5.2720 C.3     1  UNL1        0.0522
     31 C          12.1463   41.9958    7.1438 C.ar    1  UNL1        0.2211
     32 N          12.7410   42.8499    6.2662 N.ar    1  UNL1       -0.2179
     33 N          12.9129   41.2809    8.0094 N.ar    1  UNL1       -0.2179
@<TRIPOS>BOND
     1    26    27    1
     2    27    33   ar
     3    28    29   ar
     4    30    29    1
     5    31    32   ar
     6    31    24    1
     7     1     7   ar
     8     2     3   ar
     9     4     6   ar
    10     5     4    1
    11     8     3    1
    12     8     9    1
    13     9    10    1
    14    10    11    1
    15    11    14    1
    16    12    14    1
    17    12     8    1
    18    13    16    1
    19    17    18    1
    20    18    19   ar
    21    20    23    1
    22    24     1    1
    23    14    13   am
    24    23    22   ar
    25    23    21   ar
    26    27    28   ar
    27    29    32   ar
    28    31    33   ar
    29     1     2   ar
    30     3     6   ar
    31     4     7   ar
    32    13    15    2
    33    16    17    2
    34    19    22   ar
    35    21    18   ar
    36    24    25    1
@<TRIPOS>MOLECULE
Molport-047-071-756 PubChem-132766831
 33 36 0 0 0
SMALL
GASTEIGER

@<TRIPOS>ATOM
      1 C           7.6388   41.7745   11.2662 C.ar    1  UNL1        0.1368
      2 C           8.7394   41.6089   10.4258 C.ar    1  UNL1        0.0492
      3 C           9.9655   41.2574   10.9902 C.ar    1  UNL1        0.0644
      4 C           8.9847   41.2491   13.1420 C.ar    1  UNL1        0.1406
      5 C           9.1155   41.0553   14.6094 C.3     1  UNL1        0.0737
      6 N          10.0658   41.0844   12.3363 N.ar    1  UNL1       -0.2348
      7 N           7.7839   41.5912   12.6070 N.ar    1  UNL1       -0.2159
      8 C          11.1561   41.0761   10.1085 C.3     1  UNL1        0.0603
      9 C          10.7653   40.3793    8.8022 C.3     1  UNL1        0.0094
     10 C          11.9664   40.0993    7.8846 C.3     1  UNL1        0.0220
     11 C          13.3130   40.4053    8.5428 C.3     1  UNL1        0.0937
     12 C          12.2512   40.2885   10.8325 C.3     1  UNL1        0.0996
     13 C          14.4057   39.0814   10.4121 C.2     1  UNL1        0.2492
     14 N          13.3282   39.8995    9.9159 N.am    1  UNL1       -0.2757
     15 O          14.6146   39.0245   11.6534 O.2     1  UNL1       -0.2699
     16 C          15.2861   38.2838    9.5378 C.2     1  UNL1        0.0580
     17 C          15.2852   36.9554    9.4955 C.2     1  UNL1        0.0078
     18 C          16.1805   36.2090    8.6074 C.ar    1  UNL1        0.0398
     19 C          17.5132   35.8984    8.8234 C.ar    1  UNL1        0.1216
     20 C          17.0296   34.3938    5.6345 C.3     1  UNL1        0.1538
     21 C          15.8323   35.6827    7.3823 C.ar    1  UNL1        0.0967
     22 N          17.9460   35.2043    7.7529 N.ar    1  UNL1       -0.1676
     23 N          16.9369   35.0847    6.9066 N.ar    1  UNL1       -0.2473
     24 N           6.3748   42.1353   10.6966 N.pl3   1  UNL1       -0.2679
     25 H           5.5744   41.9587   11.2419 H       1  UNL1        0.1565
     26 C           7.7630   42.5857    6.0500 C.3     1  UNL1        0.0522
     27 C           6.8344   42.9505    7.1513 C.ar    1  UNL1        0.0634
     28 C           5.7935   43.8470    6.9168 C.ar    1  UNL1        0.0296
     29 C           4.9440   44.1640    7.9750 C.ar    1  UNL1        0.0634
     30 C           3.8215   45.1153    7.7682 C.3     1  UNL1        0.0522
     31 C           6.1636   42.7285    9.4098 C.ar    1  UNL1        0.2211
     32 N           5.1422   43.6028    9.1959 N.ar    1  UNL1       -0.2179
     33 N           7.0004   42.4100    8.3869 N.ar    1  UNL1       -0.2179
@<TRIPOS>BOND
     1    26    27    1
     2    27    33   ar
     3    28    29   ar
     4    30    29    1
     5    31    32   ar
     6    31    24    1
     7     1     7   ar
     8     2     3   ar
     9     4     6   ar
    10     5     4    1
    11     8     3    1
    12     8     9    1
    13     9    10    1
    14    10    11    1
    15    11    14    1
    16    12    14    1
    17    12     8    1
    18    13    16    1
    19    17    18    1
    20    18    19   ar
    21    20    23    1
    22    24     1    1
    23    14    13   am
    24    23    22   ar
    25    23    21   ar
    26    27    28   ar
    27    29    32   ar
    28    31    33   ar
    29     1     2   ar
    30     3     6   ar
    31     4     7   ar
    32    13    15    2
    33    16    17    2
    34    19    22   ar
    35    21    18   ar
    36    24    25    1
@<TRIPOS>MOLECULE
Molport-047-071-756 PubChem-132766831
 33 36 0 0 0
SMALL
GASTEIGER

@<TRIPOS>ATOM
      1 C          14.8881   39.8906    9.6977 C.ar    1  UNL1        0.1368
      2 C          13.7919   40.7487    9.7808 C.ar    1  UNL1        0.0492
      3 C          12.6080   40.2696   10.3413 C.ar    1  UNL1        0.0644
      4 C          13.6196   38.1632   10.7042 C.ar    1  UNL1        0.1406
      5 C          13.5283   36.7662   11.2024 C.3     1  UNL1        0.0737
      6 N          12.5434   38.9871   10.7920 N.ar    1  UNL1       -0.2348
      7 N          14.7796   38.6154   10.1610 N.ar    1  UNL1       -0.2159
      8 C          11.4227   41.1715   10.4390 C.3     1  UNL1        0.0603
      9 C          10.3936   40.6132   11.4260 C.3     1  UNL1        0.0094
     10 C           9.1165   41.4644   11.5124 C.3     1  UNL1        0.0220
     11 C           9.0629   42.5801   10.4671 C.3     1  UNL1        0.0937
     12 C          10.7884   41.3835    9.0619 C.3     1  UNL1        0.0996
     13 C           8.7208   42.2825    7.9700 C.2     1  UNL1        0.2492
     14 N           9.4970   42.0711    9.1656 N.am    1  UNL1       -0.2757
     15 O           9.2908   42.2272    6.8477 O.2     1  UNL1       -0.2699
     16 C           7.2708   42.5529    7.9829 C.2     1  UNL1        0.0580
     17 C           6.7271   43.6670    8.4621 C.2     1  UNL1        0.0078
     18 C           5.2785   43.8879    8.4510 C.ar    1  UNL1        0.0398
     19 C           4.3141   43.1812    9.1508 C.ar    1  UNL1        0.1216
     20 C           2.2539   45.5306    7.4471 C.3     1  UNL1        0.1538
     21 C           4.6250   44.8587    7.7234 C.ar    1  UNL1        0.0967
     22 N           3.1171   43.7193    8.8465 N.ar    1  UNL1       -0.1676
     23 N           3.3184   44.7137    7.9983 N.ar    1  UNL1       -0.2473
     24 N          16.1090   40.3728    9.1238 N.pl3   1  UNL1       -0.2679
     25 H          16.9127   39.8204    9.2587 H       1  UNL1        0.1565
     26 C          14.2705   43.5702    5.9431 C.3     1  UNL1        0.0522
     27 C          15.3837   43.1378    6.8274 C.ar    1  UNL1        0.0634
     28 C          16.5462   43.9021    6.9086 C.ar    1  UNL1        0.0296
     29 C          17.5675   43.4635    7.7490 C.ar    1  UNL1        0.0634
     30 C          18.8237   44.2485    7.8652 C.3     1  UNL1        0.0522
     31 C          16.2728   41.5816    8.3726 C.ar    1  UNL1        0.2211
     32 N          17.4145   42.3178    8.4623 N.ar    1  UNL1       -0.2179
     33 N          15.2681   41.9971    7.5567 N.ar    1  UNL1       -0.2179
@<TRIPOS>BOND
     1    26    27    1
     2    27    33   ar
     3    28    29   ar
     4    30    29    1
     5    31    32   ar
     6    31    24    1
     7     1     7   ar
     8     2     3   ar
     9     4     6   ar
    10     5     4    1
    11     8     3    1
    12     8     9    1
    13     9    10    1
    14    10    11    1
    15    11    14    1
    16    12    14    1
    17    12     8    1
    18    13    16    1
    19    17    18    1
    20    18    19   ar
    21    20    23    1
    22    24     1    1
    23    14    13   am
    24    23    22   ar
    25    23    21   ar
    26    27    28   ar
    27    29    32   ar
    28    31    33   ar
    29     1     2   ar
    30     3     6   ar
    31     4     7   ar
    32    13    15    2
    33    16    17    2
    34    19    22   ar
    35    21    18   ar
    36    24    25    1
