@<TRIPOS>MOLECULE
MolPort-007-713-437 ChemDiv-E002-0307 MCULE-4157698301 PubChem-22509881 ZINC000006768038 ZINC06768038
 26 27 0 0 0
SMALL
GASTEIGER

@<TRIPOS>ATOM
      1 C          11.3832   42.1247    6.4094 C.2     1  UNL1        0.3097
      2 N          10.1869   41.8380    5.6787 N.am    1  UNL1       -0.2468
      3 N          12.6308   42.1629    5.7099 N.am    1  UNL1       -0.2656
      4 O          11.3475   42.2961    7.6583 O.2     1  UNL1       -0.2521
      5 H          10.2728   41.6769    4.7113 H       1  UNL1        0.1584
      6 H          12.6447   41.8073    4.7920 H       1  UNL1        0.1565
      7 C          13.8623   42.6759    6.2348 C.ar    1  UNL1        0.0859
      8 C          14.5911   42.0014    7.2394 C.ar    1  UNL1        0.1521
      9 C          15.7882   42.5647    7.7140 C.ar    1  UNL1        0.0382
     10 C          16.2418   43.7896    7.2216 C.ar    1  UNL1        0.0032
     11 C          15.4996   44.4698    6.2557 C.ar    1  UNL1        0.0015
     12 C          14.3127   43.9170    5.7709 C.ar    1  UNL1        0.0178
     13 C          14.1994   40.4804    9.1562 C.3     1  UNL1        0.2525
     14 O          14.1048   40.8034    7.7755 O.3     1  UNL1       -0.4702
     15 C           6.8669   41.9113    7.5382 C.ar    1  UNL1        0.1868
     16 C           8.8755   41.7674    6.2464 C.ar    1  UNL1        0.1904
     17 N           6.7236   41.1749    6.4125 N.ar    1  UNL1       -0.1242
     18 N           7.8416   41.0949    5.6932 N.ar    1  UNL1       -0.1240
     19 S           8.4396   42.5098    7.6917 S.2     1  UNL1       -0.0154
     20 N           5.8034   42.1362    8.4739 N.pl3   1  UNL1       -0.2868
     21 C           5.4379   43.4935    8.8616 C.3     1  UNL1        0.0927
     22 C           3.8669   45.0198    7.7111 C.3     1  UNL1        0.0018
     23 C           5.2231   44.3523    7.6294 C.3     1  UNL1        0.0215
     24 C           5.0255   41.0098    8.9812 C.3     1  UNL1        0.0927
     25 C           3.6742   41.4762    9.5020 C.3     1  UNL1        0.0215
     26 C           3.5652   41.2291   10.9943 C.3     1  UNL1        0.0018
@<TRIPOS>BOND
     1    22    23    1
     2    23    21    1
     3    21    20    1
     4    24    20    1
     5    24    25    1
     6    25    26    1
     7    15    19   ar
     8    16     2    1
     9    16    19   ar
    10     1     3   am
    11     8    14    1
    12     8     9   ar
    13    13    14    1
    14    10    11   ar
    15    12     7   ar
    16    20    15    1
    17    17    18   ar
    18     2     1   am
    19     3     7    1
    20    15    17   ar
    21    16    18   ar
    22     1     4    2
    23     7     8   ar
    24     9    10   ar
    25    11    12   ar
    26     2     5    1
    27     3     6    1
@<TRIPOS>MOLECULE
MolPort-007-713-437 ChemDiv-E002-0307 MCULE-4157698301 PubChem-22509881 ZINC000006768038 ZINC06768038
 26 27 0 0 0
SMALL
GASTEIGER

@<TRIPOS>ATOM
      1 C          11.5422   42.1669    6.4375 C.2     1  UNL1        0.3097
      2 N          10.3830   41.7677    5.6998 N.am    1  UNL1       -0.2468
      3 N          12.8172   42.1496    5.7883 N.am    1  UNL1       -0.2656
      4 O          11.4510   42.4854    7.6542 O.2     1  UNL1       -0.2521
      5 H          10.5122   41.4943    4.7629 H       1  UNL1        0.1584
      6 H          12.8759   41.6874    4.9210 H       1  UNL1        0.1565
      7 C          14.0162   42.7496    6.2959 C.ar    1  UNL1        0.0859
      8 C          14.7782   42.1538    7.3253 C.ar    1  UNL1        0.1521
      9 C          15.9402   42.8002    7.7809 C.ar    1  UNL1        0.0382
     10 C          16.3262   44.0301    7.2449 C.ar    1  UNL1        0.0032
     11 C          15.5503   44.6321    6.2539 C.ar    1  UNL1        0.0015
     12 C          14.3979   43.9964    5.7879 C.ar    1  UNL1        0.0178
     13 C          14.9054   40.4422    9.1128 C.3     1  UNL1        0.2525
     14 O          14.3580   40.9506    7.9039 O.3     1  UNL1       -0.4702
     15 C           7.0126   41.8894    7.4636 C.ar    1  UNL1        0.1868
     16 C           9.0504   41.7356    6.2196 C.ar    1  UNL1        0.1904
     17 N           6.8564   41.2950    6.2585 N.ar    1  UNL1       -0.1242
     18 N           7.9906   41.2095    5.5658 N.ar    1  UNL1       -0.1240
     19 S           8.6183   42.3449    7.7269 S.2     1  UNL1       -0.0154
     20 N           5.9354   42.0904    8.3892 N.pl3   1  UNL1       -0.2868
     21 C           5.1731   40.9531    8.8906 C.3     1  UNL1        0.0927
     22 C           3.9683   40.9107   11.0512 C.3     1  UNL1        0.0018
     23 C           3.9385   41.4330    9.6306 C.3     1  UNL1        0.0215
     24 C           5.6493   43.4283    8.8986 C.3     1  UNL1        0.0927
     25 C           5.3813   44.3965    7.7560 C.3     1  UNL1        0.0215
     26 C           3.9393   44.8652    7.7833 C.3     1  UNL1        0.0018
@<TRIPOS>BOND
     1    22    23    1
     2    23    21    1
     3    21    20    1
     4    24    20    1
     5    24    25    1
     6    25    26    1
     7    15    19   ar
     8    16     2    1
     9    16    19   ar
    10     1     3   am
    11     8    14    1
    12     8     9   ar
    13    13    14    1
    14    10    11   ar
    15    12     7   ar
    16    20    15    1
    17    17    18   ar
    18     2     1   am
    19     3     7    1
    20    15    17   ar
    21    16    18   ar
    22     1     4    2
    23     7     8   ar
    24     9    10   ar
    25    11    12   ar
    26     2     5    1
    27     3     6    1
@<TRIPOS>MOLECULE
MolPort-007-713-437 ChemDiv-E002-0307 MCULE-4157698301 PubChem-22509881 ZINC000006768038 ZINC06768038
 26 27 0 0 0
SMALL
GASTEIGER

@<TRIPOS>ATOM
      1 C           7.9767   41.7612   10.1046 C.2     1  UNL1        0.3097
      2 N           9.2392   42.2344   10.5837 N.am    1  UNL1       -0.2468
      3 N           6.7932   42.0702   10.8470 N.am    1  UNL1       -0.2656
      4 O           7.9105   41.0440    9.0695 O.2     1  UNL1       -0.2521
      5 H           9.2414   42.7608   11.4156 H       1  UNL1        0.1584
      6 H           6.9115   42.4343   11.7540 H       1  UNL1        0.1565
      7 C           5.4495   41.8938   10.3796 C.ar    1  UNL1        0.0859
      8 C           4.7933   42.8651    9.5913 C.ar    1  UNL1        0.1521
      9 C           3.4721   42.6309    9.1728 C.ar    1  UNL1        0.0382
     10 C           2.8022   41.4662    9.5518 C.ar    1  UNL1        0.0032
     11 C           3.4420   40.5268   10.3608 C.ar    1  UNL1        0.0015
     12 C           4.7568   40.7446   10.7769 C.ar    1  UNL1        0.0178
     13 C           6.1378   44.2486    8.0359 C.3     1  UNL1        0.2525
     14 O           5.4446   44.0594    9.2620 O.3     1  UNL1       -0.4702
     15 C          12.6463   41.2640    9.1925 C.ar    1  UNL1        0.1868
     16 C          10.4987   42.0012    9.9461 C.ar    1  UNL1        0.1904
     17 N          12.1753   42.3260    8.4996 N.ar    1  UNL1       -0.1242
     18 N          10.9798   42.7364    8.9188 N.ar    1  UNL1       -0.1240
     19 S          11.5628   40.7779   10.3946 S.2     1  UNL1       -0.0154
     20 N          13.9142   40.6484    8.9266 N.pl3   1  UNL1       -0.2868
     21 C          14.1920   39.2983    9.4021 C.3     1  UNL1        0.0927
     22 C          14.1981   38.6200   11.7814 C.3     1  UNL1        0.0018
     23 C          14.9710   39.3490   10.7031 C.3     1  UNL1        0.0215
     24 C          14.9047   41.3395    8.1064 C.3     1  UNL1        0.0927
     25 C          16.2036   41.5330    8.8747 C.3     1  UNL1        0.0215
     26 C          17.1732   42.3816    8.0749 C.3     1  UNL1        0.0018
@<TRIPOS>BOND
     1    22    23    1
     2    23    21    1
     3    21    20    1
     4    24    20    1
     5    24    25    1
     6    25    26    1
     7    15    19   ar
     8    16     2    1
     9    16    19   ar
    10     1     3   am
    11     8    14    1
    12     8     9   ar
    13    13    14    1
    14    10    11   ar
    15    12     7   ar
    16    20    15    1
    17    17    18   ar
    18     2     1   am
    19     3     7    1
    20    15    17   ar
    21    16    18   ar
    22     1     4    2
    23     7     8   ar
    24     9    10   ar
    25    11    12   ar
    26     2     5    1
    27     3     6    1
@<TRIPOS>MOLECULE
MolPort-007-713-437 ChemDiv-E002-0307 MCULE-4157698301 PubChem-22509881 ZINC000006768038 ZINC06768038
 26 27 0 0 0
SMALL
GASTEIGER

@<TRIPOS>ATOM
      1 C          11.3878   41.7256    6.9430 C.2     1  UNL1        0.3097
      2 N          10.2463   41.9649    6.1142 N.am    1  UNL1       -0.2468
      3 N          12.6950   41.8358    6.3716 N.am    1  UNL1       -0.2656
      4 O          11.2460   41.3779    8.1468 O.2     1  UNL1       -0.2521
      5 H          10.4096   42.1992    5.1721 H       1  UNL1        0.1584
      6 H          12.7557   41.8873    5.3903 H       1  UNL1        0.1565
      7 C          13.9235   41.8775    7.1093 C.ar    1  UNL1        0.0859
      8 C          14.9277   42.8353    6.8452 C.ar    1  UNL1        0.1521
      9 C          16.1117   42.8147    7.6023 C.ar    1  UNL1        0.0382
     10 C          16.3097   41.8443    8.5862 C.ar    1  UNL1        0.0032
     11 C          15.3304   40.8781    8.8184 C.ar    1  UNL1        0.0015
     12 C          14.1468   40.8926    8.0779 C.ar    1  UNL1        0.0178
     13 C          15.4027   45.0346    5.8068 C.3     1  UNL1        0.2525
     14 O          14.7539   43.7702    5.8182 O.3     1  UNL1       -0.4702
     15 C           6.7664   41.9954    7.6555 C.ar    1  UNL1        0.1868
     16 C           8.8855   41.8898    6.5500 C.ar    1  UNL1        0.1904
     17 N           6.7158   41.3468    6.4695 N.ar    1  UNL1       -0.1242
     18 N           7.8952   41.2881    5.8539 N.ar    1  UNL1       -0.1240
     19 S           8.3295   42.5373    7.9997 S.2     1  UNL1       -0.0154
     20 N           5.6236   42.1814    8.5020 N.pl3   1  UNL1       -0.2868
     21 C           5.2390   43.5188    8.9374 C.3     1  UNL1        0.0927
     22 C           3.6427   45.0134    7.7803 C.3     1  UNL1        0.0018
     23 C           5.0365   44.4245    7.7371 C.3     1  UNL1        0.0215
     24 C           4.7895   41.0397    8.8655 C.3     1  UNL1        0.0927
     25 C           3.9098   41.3713   10.0618 C.3     1  UNL1        0.0215
     26 C           4.3583   40.5930   11.2837 C.3     1  UNL1        0.0018
@<TRIPOS>BOND
     1    22    23    1
     2    23    21    1
     3    21    20    1
     4    24    20    1
     5    24    25    1
     6    25    26    1
     7    15    19   ar
     8    16     2    1
     9    16    19   ar
    10     1     3   am
    11     8    14    1
    12     8     9   ar
    13    13    14    1
    14    10    11   ar
    15    12     7   ar
    16    20    15    1
    17    17    18   ar
    18     2     1   am
    19     3     7    1
    20    15    17   ar
    21    16    18   ar
    22     1     4    2
    23     7     8   ar
    24     9    10   ar
    25    11    12   ar
    26     2     5    1
    27     3     6    1
@<TRIPOS>MOLECULE
MolPort-007-713-437 ChemDiv-E002-0307 MCULE-4157698301 PubChem-22509881 ZINC000006768038 ZINC06768038
 26 27 0 0 0
SMALL
GASTEIGER

@<TRIPOS>ATOM
      1 C          11.2489   41.7486    6.9566 C.2     1  UNL1        0.3097
      2 N          10.0906   41.9510    6.1414 N.am    1  UNL1       -0.2468
      3 N          12.5437   41.8219    6.3523 N.am    1  UNL1       -0.2656
      4 O          11.1318   41.4643    8.1796 O.2     1  UNL1       -0.2521
      5 H          10.2344   42.1354    5.1851 H       1  UNL1        0.1584
      6 H          12.5833   41.8223    5.3686 H       1  UNL1        0.1565
      7 C          13.7882   41.8950    7.0603 C.ar    1  UNL1        0.0859
      8 C          14.7494   42.8944    6.7912 C.ar    1  UNL1        0.1521
      9 C          15.9523   42.9032    7.5184 C.ar    1  UNL1        0.0382
     10 C          16.2107   41.9218    8.4770 C.ar    1  UNL1        0.0032
     11 C          15.2738   40.9154    8.7133 C.ar    1  UNL1        0.0015
     12 C          14.0721   40.9002    8.0027 C.ar    1  UNL1        0.0178
     13 C          15.1829   45.0959    5.7392 C.3     1  UNL1        0.2525
     14 O          14.5155   43.8422    5.7882 O.3     1  UNL1       -0.4702
     15 C           6.6437   42.0873    7.7495 C.ar    1  UNL1        0.1868
     16 C           8.7393   41.9060    6.6097 C.ar    1  UNL1        0.1904
     17 N           6.5692   41.3588    6.6120 N.ar    1  UNL1       -0.1242
     18 N           7.7356   41.2581    5.9773 N.ar    1  UNL1       -0.1240
     19 S           8.2128   42.6514    8.0229 S.2     1  UNL1       -0.0154
     20 N           5.5185   42.3308    8.6049 N.pl3   1  UNL1       -0.2868
     21 C           4.8089   41.2175    9.2239 C.3     1  UNL1        0.0927
     22 C           2.9103   41.8273   10.6884 C.3     1  UNL1        0.0018
     23 C           3.3194   41.5025    9.2676 C.3     1  UNL1        0.0215
     24 C           5.1278   43.7001    8.9270 C.3     1  UNL1        0.0927
     25 C           4.9235   44.5169    7.6597 C.3     1  UNL1        0.0215
     26 C           3.5489   45.1575    7.6557 C.3     1  UNL1        0.0018
@<TRIPOS>BOND
     1    22    23    1
     2    23    21    1
     3    21    20    1
     4    24    20    1
     5    24    25    1
     6    25    26    1
     7    15    19   ar
     8    16     2    1
     9    16    19   ar
    10     1     3   am
    11     8    14    1
    12     8     9   ar
    13    13    14    1
    14    10    11   ar
    15    12     7   ar
    16    20    15    1
    17    17    18   ar
    18     2     1   am
    19     3     7    1
    20    15    17   ar
    21    16    18   ar
    22     1     4    2
    23     7     8   ar
    24     9    10   ar
    25    11    12   ar
    26     2     5    1
    27     3     6    1
@<TRIPOS>MOLECULE
MolPort-007-713-437 ChemDiv-E002-0307 MCULE-4157698301 PubChem-22509881 ZINC000006768038 ZINC06768038
 26 27 0 0 0
SMALL
GASTEIGER

@<TRIPOS>ATOM
      1 C           7.7205   41.8435   10.2585 C.2     1  UNL1        0.3097
      2 N           8.9671   42.3708   10.7222 N.am    1  UNL1       -0.2468
      3 N           6.5227   42.1662   10.9716 N.am    1  UNL1       -0.2656
      4 O           7.6809   41.0690    9.2641 O.2     1  UNL1       -0.2521
      5 H           8.9490   42.9422   11.5238 H       1  UNL1        0.1584
      6 H           6.6235   42.5823   11.8582 H       1  UNL1        0.1565
      7 C           5.1881   41.9339   10.5024 C.ar    1  UNL1        0.0859
      8 C           4.5242   42.8384    9.6441 C.ar    1  UNL1        0.1521
      9 C           3.2127   42.5521    9.2276 C.ar    1  UNL1        0.0382
     10 C           2.5592   41.4028    9.6759 C.ar    1  UNL1        0.0032
     11 C           3.2060   40.5312   10.5526 C.ar    1  UNL1        0.0015
     12 C           4.5115   40.8008   10.9676 C.ar    1  UNL1        0.0178
     13 C           5.5024   44.2918    7.8915 C.3     1  UNL1        0.2525
     14 O           5.1579   44.0202    9.2432 O.3     1  UNL1       -0.4702
     15 C          12.3005   41.2907    9.2364 C.ar    1  UNL1        0.1868
     16 C          10.2380   42.1313   10.1102 C.ar    1  UNL1        0.1904
     17 N          12.1222   42.6110    9.0017 N.ar    1  UNL1       -0.1242
     18 N          10.9741   43.0790    9.4879 N.ar    1  UNL1       -0.1240
     19 S          10.9983   40.6308   10.0872 S.2     1  UNL1       -0.0154
     20 N          13.4623   40.5644    8.8124 N.pl3   1  UNL1       -0.2868
     21 C          13.3282   39.4056    7.9376 C.3     1  UNL1        0.0927
     22 C          11.6056   39.7448    6.1943 C.3     1  UNL1        0.0018
     23 C          11.8712   39.1859    7.5758 C.3     1  UNL1        0.0215
     24 C          14.7937   41.0310    9.1880 C.3     1  UNL1        0.0927
     25 C          15.5428   41.5627    7.9752 C.3     1  UNL1        0.0215
     26 C          14.6600   42.4997    7.1735 C.3     1  UNL1        0.0018
@<TRIPOS>BOND
     1    22    23    1
     2    23    21    1
     3    21    20    1
     4    24    20    1
     5    24    25    1
     6    25    26    1
     7    15    19   ar
     8    16     2    1
     9    16    19   ar
    10     1     3   am
    11     8    14    1
    12     8     9   ar
    13    13    14    1
    14    10    11   ar
    15    12     7   ar
    16    20    15    1
    17    17    18   ar
    18     2     1   am
    19     3     7    1
    20    15    17   ar
    21    16    18   ar
    22     1     4    2
    23     7     8   ar
    24     9    10   ar
    25    11    12   ar
    26     2     5    1
    27     3     6    1
@<TRIPOS>MOLECULE
MolPort-007-713-437 ChemDiv-E002-0307 MCULE-4157698301 PubChem-22509881 ZINC000006768038 ZINC06768038
 26 27 0 0 0
SMALL
GASTEIGER

@<TRIPOS>ATOM
      1 C          12.2155   41.9434    7.9712 C.2     1  UNL1        0.3097
      2 N          11.1078   41.0404    8.0408 N.am    1  UNL1       -0.2468
      3 N          13.3469   41.5925    7.1687 N.am    1  UNL1       -0.2656
      4 O          12.2167   43.0113    8.6419 O.2     1  UNL1       -0.2521
      5 H          11.1706   40.2034    7.5262 H       1  UNL1        0.1584
      6 H          13.4011   40.6638    6.8464 H       1  UNL1        0.1565
      7 C          14.4082   42.4810    6.7950 C.ar    1  UNL1        0.0859
      8 C          15.6351   42.5235    7.4937 C.ar    1  UNL1        0.1521
      9 C          16.6308   43.4242    7.0778 C.ar    1  UNL1        0.0382
     10 C          16.4047   44.2881    6.0048 C.ar    1  UNL1        0.0032
     11 C          15.1777   44.2678    5.3410 C.ar    1  UNL1        0.0015
     12 C          14.1834   43.3724    5.7400 C.ar    1  UNL1        0.0178
     13 C          17.1297   41.3939    9.1157 C.3     1  UNL1        0.2525
     14 O          15.8386   41.6995    8.6066 O.3     1  UNL1       -0.4702
     15 C           7.7137   41.6459    9.6529 C.ar    1  UNL1        0.1868
     16 C           9.9159   41.2606    8.8011 C.ar    1  UNL1        0.1904
     17 N           8.6505   41.5509   10.6241 N.ar    1  UNL1       -0.1242
     18 N           9.8764   41.3363   10.1501 N.ar    1  UNL1       -0.1240
     19 S           8.3928   41.4639    8.1164 S.2     1  UNL1       -0.0154
     20 N           6.3237   41.8798    9.9183 N.pl3   1  UNL1       -0.2868
     21 C           5.4386   42.3430    8.8561 C.3     1  UNL1        0.0927
     22 C           4.3012   44.4151    8.1252 C.3     1  UNL1        0.0018
     23 C           5.5968   43.8385    8.6547 C.3     1  UNL1        0.0215
     24 C           5.7694   41.5761   11.2342 C.3     1  UNL1        0.0927
     25 C           4.2559   41.4371   11.1650 C.3     1  UNL1        0.0215
     26 C           3.8342   40.0263   11.5280 C.3     1  UNL1        0.0018
@<TRIPOS>BOND
     1    22    23    1
     2    23    21    1
     3    21    20    1
     4    24    20    1
     5    24    25    1
     6    25    26    1
     7    15    19   ar
     8    16     2    1
     9    16    19   ar
    10     1     3   am
    11     8    14    1
    12     8     9   ar
    13    13    14    1
    14    10    11   ar
    15    12     7   ar
    16    20    15    1
    17    17    18   ar
    18     2     1   am
    19     3     7    1
    20    15    17   ar
    21    16    18   ar
    22     1     4    2
    23     7     8   ar
    24     9    10   ar
    25    11    12   ar
    26     2     5    1
    27     3     6    1
@<TRIPOS>MOLECULE
MolPort-007-713-437 ChemDiv-E002-0307 MCULE-4157698301 PubChem-22509881 ZINC000006768038 ZINC06768038
 26 27 0 0 0
SMALL
GASTEIGER

@<TRIPOS>ATOM
      1 C          12.6269   41.8004    7.7358 C.2     1  UNL1        0.3097
      2 N          11.3614   41.7105    7.0742 N.am    1  UNL1       -0.2468
      3 N          13.7995   42.0577    6.9574 N.am    1  UNL1       -0.2656
      4 O          12.7165   41.6106    8.9792 O.2     1  UNL1       -0.2521
      5 H          11.3495   41.8315    6.0973 H       1  UNL1        0.1584
      6 H          13.7189   41.9769    5.9795 H       1  UNL1        0.1565
      7 C          15.0821   42.4235    7.4832 C.ar    1  UNL1        0.0859
      8 C          15.7189   43.6362    7.1378 C.ar    1  UNL1        0.1521
      9 C          16.9802   43.9290    7.6848 C.ar    1  UNL1        0.0382
     10 C          17.6127   43.0231    8.5381 C.ar    1  UNL1        0.0032
     11 C          16.9959   41.8105    8.8472 C.ar    1  UNL1        0.0015
     12 C          15.7398   41.5114    8.3161 C.ar    1  UNL1        0.0178
     13 C          14.8631   44.1806    4.8768 C.3     1  UNL1        0.2525
     14 O          15.1112   44.5165    6.2352 O.3     1  UNL1       -0.4702
     15 C           8.0599   41.4812    8.9540 C.ar    1  UNL1        0.1868
     16 C          10.1118   41.4582    7.7239 C.ar    1  UNL1        0.1904
     17 N           8.3189   40.2868    8.3740 N.ar    1  UNL1       -0.1242
     18 N           9.4610   40.2740    7.6891 N.ar    1  UNL1       -0.1240
     19 S           9.2799   42.6049    8.6312 S.2     1  UNL1       -0.0154
     20 N           6.8917   41.7363    9.7462 N.pl3   1  UNL1       -0.2868
     21 C           6.9338   41.5732   11.1945 C.3     1  UNL1        0.0927
     22 C           8.6019   41.1064   12.9610 C.3     1  UNL1        0.0018
     23 C           8.3105   41.9286   11.7239 C.3     1  UNL1        0.0215
     24 C           5.6760   42.2408    9.1147 C.3     1  UNL1        0.0927
     25 C           4.5373   41.2419    9.2580 C.3     1  UNL1        0.0215
     26 C           3.2410   41.9569    9.5872 C.3     1  UNL1        0.0018
@<TRIPOS>BOND
     1    22    23    1
     2    23    21    1
     3    21    20    1
     4    24    20    1
     5    24    25    1
     6    25    26    1
     7    15    19   ar
     8    16     2    1
     9    16    19   ar
    10     1     3   am
    11     8    14    1
    12     8     9   ar
    13    13    14    1
    14    10    11   ar
    15    12     7   ar
    16    20    15    1
    17    17    18   ar
    18     2     1   am
    19     3     7    1
    20    15    17   ar
    21    16    18   ar
    22     1     4    2
    23     7     8   ar
    24     9    10   ar
    25    11    12   ar
    26     2     5    1
    27     3     6    1
@<TRIPOS>MOLECULE
MolPort-007-713-437 ChemDiv-E002-0307 MCULE-4157698301 PubChem-22509881 ZINC000006768038 ZINC06768038
 26 27 0 0 0
SMALL
GASTEIGER

@<TRIPOS>ATOM
      1 C          11.8218   42.2143    6.9093 C.2     1  UNL1        0.3097
      2 N          10.5251   41.8052    6.4640 N.am    1  UNL1       -0.2468
      3 N          12.8391   42.4733    5.9370 N.am    1  UNL1       -0.2656
      4 O          12.0802   42.3015    8.1405 O.2     1  UNL1       -0.2521
      5 H          10.3842   41.7181    5.4935 H       1  UNL1        0.1584
      6 H          12.6656   42.1807    5.0132 H       1  UNL1        0.1565
      7 C          14.0902   43.1236    6.1965 C.ar    1  UNL1        0.0859
      8 C          15.0707   42.5588    7.0419 C.ar    1  UNL1        0.1521
      9 C          16.2730   43.2540    7.2586 C.ar    1  UNL1        0.0382
     10 C          16.4892   44.5011    6.6695 C.ar    1  UNL1        0.0032
     11 C          15.5026   45.0714    5.8646 C.ar    1  UNL1        0.0015
     12 C          14.3072   44.3873    5.6359 C.ar    1  UNL1        0.0178
     13 C          15.4351   40.9759    8.9135 C.3     1  UNL1        0.2525
     14 O          14.8286   41.3368    7.6800 O.3     1  UNL1       -0.4702
     15 C           7.7098   41.4016    8.9932 C.ar    1  UNL1        0.1868
     16 C           9.4173   41.5131    7.3212 C.ar    1  UNL1        0.1904
     17 N           7.6259   40.4069    8.0802 N.ar    1  UNL1       -0.1242
     18 N           8.5762   40.4690    7.1493 N.ar    1  UNL1       -0.1240
     19 S           9.0115   42.4300    8.6720 S.2     1  UNL1       -0.0154
     20 N           6.7997   41.5413   10.0929 N.pl3   1  UNL1       -0.2868
     21 C           5.3935   41.1896    9.9348 C.3     1  UNL1        0.0927
     22 C           3.7644   43.0370    9.7010 C.3     1  UNL1        0.0018
     23 C           4.7226   42.1336    8.9545 C.3     1  UNL1        0.0215
     24 C           7.2933   41.9585   11.4020 C.3     1  UNL1        0.0927
     25 C           8.4795   41.1071   11.8296 C.3     1  UNL1        0.0215
     26 C           8.7067   41.2240   13.3245 C.3     1  UNL1        0.0018
@<TRIPOS>BOND
     1    22    23    1
     2    23    21    1
     3    21    20    1
     4    24    20    1
     5    24    25    1
     6    25    26    1
     7    15    19   ar
     8    16     2    1
     9    16    19   ar
    10     1     3   am
    11     8    14    1
    12     8     9   ar
    13    13    14    1
    14    10    11   ar
    15    12     7   ar
    16    20    15    1
    17    17    18   ar
    18     2     1   am
    19     3     7    1
    20    15    17   ar
    21    16    18   ar
    22     1     4    2
    23     7     8   ar
    24     9    10   ar
    25    11    12   ar
    26     2     5    1
    27     3     6    1
@<TRIPOS>MOLECULE
MolPort-007-713-437 ChemDiv-E002-0307 MCULE-4157698301 PubChem-22509881 ZINC000006768038 ZINC06768038
 26 27 0 0 0
SMALL
GASTEIGER

@<TRIPOS>ATOM
      1 C          12.3796   41.6615    7.7561 C.2     1  UNL1        0.3097
      2 N          11.0886   41.7747    7.1497 N.am    1  UNL1       -0.2468
      3 N          13.5431   41.9136    6.9625 N.am    1  UNL1       -0.2656
      4 O          12.4947   41.3005    8.9589 O.2     1  UNL1       -0.2521
      5 H          11.0537   42.0253    6.1983 H       1  UNL1        0.1584
      6 H          13.4205   41.9713    5.9873 H       1  UNL1        0.1565
      7 C          14.8726   42.0892    7.4693 C.ar    1  UNL1        0.0859
      8 C          15.7806   43.0079    6.8976 C.ar    1  UNL1        0.1521
      9 C          17.0719   43.1245    7.4403 C.ar    1  UNL1        0.0382
     10 C          17.4667   42.3245    8.5141 C.ar    1  UNL1        0.0032
     11 C          16.5784   41.3927    9.0518 C.ar    1  UNL1        0.0015
     12 C          15.2904   41.2727    8.5262 C.ar    1  UNL1        0.0178
     13 C          15.1023   45.1532    5.8590 C.3     1  UNL1        0.2525
     14 O          15.4041   43.7666    5.7833 O.3     1  UNL1       -0.4702
     15 C           7.8582   41.5862    9.1535 C.ar    1  UNL1        0.1868
     16 C           9.8445   41.5516    7.8202 C.ar    1  UNL1        0.1904
     17 N           7.9554   40.4860    8.3723 N.ar    1  UNL1       -0.1242
     18 N           9.0608   40.4667    7.6300 N.ar    1  UNL1       -0.1240
     19 S           9.1859   42.6111    8.9489 S.2     1  UNL1       -0.0154
     20 N           6.7589   41.8274   10.0425 N.pl3   1  UNL1       -0.2868
     21 C           5.5361   42.4506    9.5500 C.3     1  UNL1        0.0927
     22 C           3.7421   40.8391   10.1030 C.3     1  UNL1        0.0018
     23 C           4.5993   41.3981    8.9875 C.3     1  UNL1        0.0215
     24 C           6.8267   41.3747   11.4288 C.3     1  UNL1        0.0927
     25 C           7.9658   42.0618   12.1673 C.3     1  UNL1        0.0215
     26 C           8.8250   41.0407   12.8877 C.3     1  UNL1        0.0018
@<TRIPOS>BOND
     1    22    23    1
     2    23    21    1
     3    21    20    1
     4    24    20    1
     5    24    25    1
     6    25    26    1
     7    15    19   ar
     8    16     2    1
     9    16    19   ar
    10     1     3   am
    11     8    14    1
    12     8     9   ar
    13    13    14    1
    14    10    11   ar
    15    12     7   ar
    16    20    15    1
    17    17    18   ar
    18     2     1   am
    19     3     7    1
    20    15    17   ar
    21    16    18   ar
    22     1     4    2
    23     7     8   ar
    24     9    10   ar
    25    11    12   ar
    26     2     5    1
    27     3     6    1
