@<TRIPOS>MOLECULE
MolPort-016-966-988 ChemDiv-V028-4748 MCULE-1394186303 PubChem-8090288 ZINC000006833642 ZINC06833642
 27 29 0 0 0
SMALL
GASTEIGER

@<TRIPOS>ATOM
      1 C          12.2550   42.0369    6.7508 C.ar    1  UNL1        0.1885
      2 C          10.1633   41.5094    7.7910 C.ar    1  UNL1        0.1606
      3 N          11.2451   41.8857    5.8674 N.ar    1  UNL1       -0.1248
      4 N          10.0818   41.5921    6.4457 N.ar    1  UNL1       -0.1332
      5 S          11.7275   41.8025    8.3386 S.2     1  UNL1       -0.0241
      6 O          13.2084   44.4848    5.4380 O.2     1  UNL1       -0.2744
      7 C          14.0205   43.5590    5.7010 C.2     1  UNL1        0.2320
      8 N          13.5906   42.3509    6.3390 N.am    1  UNL1       -0.2625
      9 H          14.2803   41.6699    6.5113 H       1  UNL1        0.1568
     10 C          15.4630   43.7366    5.3718 C.3     1  UNL1        0.1117
     11 C          16.3083   43.4690    6.5705 C.ar    1  UNL1       -0.0131
     12 C          15.9674   42.4373    7.4528 C.ar    1  UNL1       -0.0038
     13 C          16.7710   42.1744    8.5665 C.ar    1  UNL1       -0.0003
     14 C          17.9183   42.9398    8.7973 C.ar    1  UNL1       -0.0000
     15 C          18.2634   43.9670    7.9136 C.ar    1  UNL1       -0.0003
     16 C          17.4602   44.2306    6.7999 C.ar    1  UNL1       -0.0038
     17 S           8.7717   41.1306    8.8443 S.3     1  UNL1       -0.0865
     18 C           7.7842   40.5332    7.4396 C.3     1  UNL1        0.0680
     19 C           6.4319   41.2280    7.4004 C.3     1  UNL1        0.0594
     20 C           6.5930   42.7399    7.4443 C.3     1  UNL1        0.2063
     21 O           5.5842   43.3153    8.2664 O.3     1  UNL1       -0.4754
     22 C           4.9386   42.5982    9.2779 C.ar    1  UNL1        0.1386
     23 C           5.7086   41.9871   10.2732 C.ar    1  UNL1        0.0369
     24 C           5.0913   41.2709   11.3033 C.ar    1  UNL1        0.0031
     25 C           3.6984   41.1616   11.3423 C.ar    1  UNL1        0.0002
     26 C           2.9221   41.7672   10.3504 C.ar    1  UNL1        0.0031
     27 C           3.5390   42.4832    9.3207 C.ar    1  UNL1        0.0369
@<TRIPOS>BOND
     1     7     8   am
     2    10     7    1
     3    10    11    1
     4    12    13   ar
     5    14    15   ar
     6    16    11   ar
     7     1     5   ar
     8     2    17    1
     9     2     5   ar
    10    18    17    1
    11    18    19    1
    12    19    20    1
    13    20    21    1
    14    22    21    1
    15    23    24   ar
    16    25    26   ar
    17    27    22   ar
    18     8     1    1
    19     3     4   ar
    20     7     6    2
    21    11    12   ar
    22    13    14   ar
    23    15    16   ar
    24     1     3   ar
    25     2     4   ar
    26    22    23   ar
    27    24    25   ar
    28    26    27   ar
    29     8     9    1
@<TRIPOS>MOLECULE
MolPort-016-966-988 ChemDiv-V028-4748 MCULE-1394186303 PubChem-8090288 ZINC000006833642 ZINC06833642
 27 29 0 0 0
SMALL
GASTEIGER

@<TRIPOS>ATOM
      1 C           7.2223   41.0252    6.4631 C.ar    1  UNL1        0.1885
      2 C           9.1335   40.1299    5.3312 C.ar    1  UNL1        0.1606
      3 N           6.9803   39.8369    5.8692 N.ar    1  UNL1       -0.1248
      4 N           8.0430   39.3390    5.2395 N.ar    1  UNL1       -0.1332
      5 S           8.8183   41.5234    6.2207 S.2     1  UNL1       -0.0241
      6 O           7.3961   43.7171    7.6242 O.2     1  UNL1       -0.2744
      7 C           6.3334   43.0521    7.7428 C.2     1  UNL1        0.2320
      8 N           6.2136   41.7359    7.1908 N.am    1  UNL1       -0.2625
      9 H           5.3542   41.2746    7.3245 H       1  UNL1        0.1568
     10 C           5.1659   43.6585    8.4427 C.3     1  UNL1        0.1117
     11 C           4.6596   42.7414    9.5034 C.ar    1  UNL1       -0.0131
     12 C           5.5596   42.0805   10.3474 C.ar    1  UNL1       -0.0038
     13 C           5.0837   41.2352   11.3543 C.ar    1  UNL1       -0.0003
     14 C           3.7074   41.0525   11.5214 C.ar    1  UNL1       -0.0000
     15 C           2.8067   41.7165   10.6829 C.ar    1  UNL1       -0.0003
     16 C           3.2820   42.5617    9.6756 C.ar    1  UNL1       -0.0038
     17 S          10.7088   39.7318    4.5897 S.3     1  UNL1       -0.0865
     18 C          11.6021   40.0910    6.1318 C.3     1  UNL1        0.0680
     19 C          12.2925   41.4435    6.0493 C.3     1  UNL1        0.0594
     20 C          12.7883   41.8882    7.4170 C.3     1  UNL1        0.2063
     21 O          14.1054   41.3992    7.6422 O.3     1  UNL1       -0.4754
     22 C          15.2254   42.2355    7.6594 C.ar    1  UNL1        0.1386
     23 C          16.3298   41.8741    8.4383 C.ar    1  UNL1        0.0369
     24 C          17.4683   42.6853    8.4685 C.ar    1  UNL1        0.0031
     25 C          17.5072   43.8645    7.7191 C.ar    1  UNL1        0.0002
     26 C          16.4072   44.2340    6.9403 C.ar    1  UNL1        0.0031
     27 C          15.2691   43.4231    6.9099 C.ar    1  UNL1        0.0369
@<TRIPOS>BOND
     1     7     8   am
     2    10     7    1
     3    10    11    1
     4    12    13   ar
     5    14    15   ar
     6    16    11   ar
     7     1     5   ar
     8     2    17    1
     9     2     5   ar
    10    18    17    1
    11    18    19    1
    12    19    20    1
    13    20    21    1
    14    22    21    1
    15    23    24   ar
    16    25    26   ar
    17    27    22   ar
    18     8     1    1
    19     3     4   ar
    20     7     6    2
    21    11    12   ar
    22    13    14   ar
    23    15    16   ar
    24     1     3   ar
    25     2     4   ar
    26    22    23   ar
    27    24    25   ar
    28    26    27   ar
    29     8     9    1
@<TRIPOS>MOLECULE
MolPort-016-966-988 ChemDiv-V028-4748 MCULE-1394186303 PubChem-8090288 ZINC000006833642 ZINC06833642
 27 29 0 0 0
SMALL
GASTEIGER

@<TRIPOS>ATOM
      1 C          16.0096   38.8230   10.4743 C.ar    1  UNL1        0.1885
      2 C          14.4664   37.0728   11.0137 C.ar    1  UNL1        0.1606
      3 N          16.1958   38.3122   11.7103 N.ar    1  UNL1       -0.1248
      4 N          15.3375   37.3390   12.0105 N.ar    1  UNL1       -0.1332
      5 S          14.7278   38.0631    9.6782 S.2     1  UNL1       -0.0241
      6 O          15.1423   41.1823    8.9557 O.2     1  UNL1       -0.2744
      7 C          16.3634   41.0208    9.2172 C.2     1  UNL1        0.2320
      8 N          16.8224   39.8816    9.9540 N.am    1  UNL1       -0.2625
      9 H          17.7911   39.8200   10.1189 H       1  UNL1        0.1568
     10 C          17.3471   42.0514    8.7800 C.3     1  UNL1        0.1117
     11 C          16.8422   42.7786    7.5805 C.ar    1  UNL1       -0.0131
     12 C          15.4653   42.8846    7.3525 C.ar    1  UNL1       -0.0038
     13 C          14.9918   43.5830    6.2375 C.ar    1  UNL1       -0.0003
     14 C          15.8940   44.1797    5.3513 C.ar    1  UNL1       -0.0000
     15 C          17.2698   44.0797    5.5807 C.ar    1  UNL1       -0.0003
     16 C          17.7439   43.3812    6.6953 C.ar    1  UNL1       -0.0038
     17 S          13.1961   35.8217   11.1186 S.3     1  UNL1       -0.0865
     18 C          12.3960   36.4101    9.5958 C.3     1  UNL1        0.0680
     19 C          11.0574   37.0599    9.9097 C.3     1  UNL1        0.0594
     20 C          10.9963   38.4776    9.3617 C.3     1  UNL1        0.2063
     21 O          11.4087   39.4053   10.3587 O.3     1  UNL1       -0.4754
     22 C          11.0317   40.7511   10.3357 C.ar    1  UNL1        0.1386
     23 C          11.6681   41.6185    9.4414 C.ar    1  UNL1        0.0369
     24 C          11.3063   42.9680    9.3885 C.ar    1  UNL1        0.0031
     25 C          10.3050   43.4576   10.2319 C.ar    1  UNL1        0.0002
     26 C           9.6661   42.5982   11.1299 C.ar    1  UNL1        0.0031
     27 C          10.0276   41.2491   11.1829 C.ar    1  UNL1        0.0369
@<TRIPOS>BOND
     1     7     8   am
     2    10     7    1
     3    10    11    1
     4    12    13   ar
     5    14    15   ar
     6    16    11   ar
     7     1     5   ar
     8     2    17    1
     9     2     5   ar
    10    18    17    1
    11    18    19    1
    12    19    20    1
    13    20    21    1
    14    22    21    1
    15    23    24   ar
    16    25    26   ar
    17    27    22   ar
    18     8     1    1
    19     3     4   ar
    20     7     6    2
    21    11    12   ar
    22    13    14   ar
    23    15    16   ar
    24     1     3   ar
    25     2     4   ar
    26    22    23   ar
    27    24    25   ar
    28    26    27   ar
    29     8     9    1
@<TRIPOS>MOLECULE
MolPort-016-966-988 ChemDiv-V028-4748 MCULE-1394186303 PubChem-8090288 ZINC000006833642 ZINC06833642
 27 29 0 0 0
SMALL
GASTEIGER

@<TRIPOS>ATOM
      1 C           7.2369   41.1457    6.5702 C.ar    1  UNL1        0.1885
      2 C           9.1689   40.3130    5.4258 C.ar    1  UNL1        0.1606
      3 N           6.9630   40.1092    5.7492 N.ar    1  UNL1       -0.1248
      4 N           8.0373   39.6461    5.1125 N.ar    1  UNL1       -0.1332
      5 S           8.8784   41.5438    6.5363 S.2     1  UNL1       -0.0241
      6 O           6.9801   44.0098    7.1662 O.2     1  UNL1       -0.2744
      7 C           6.1284   43.1985    7.6156 C.2     1  UNL1        0.2320
      8 N           6.2230   41.7950    7.3464 N.am    1  UNL1       -0.2625
      9 H           5.5230   41.2204    7.7325 H       1  UNL1        0.1568
     10 C           4.9810   43.7119    8.4161 C.3     1  UNL1        0.1117
     11 C           4.5560   42.7011    9.4262 C.ar    1  UNL1       -0.0131
     12 C           3.2323   42.2469    9.4500 C.ar    1  UNL1       -0.0038
     13 C           2.8387   41.2849   10.3853 C.ar    1  UNL1       -0.0003
     14 C           3.7689   40.7727   11.2952 C.ar    1  UNL1       -0.0000
     15 C           5.0931   41.2211   11.2690 C.ar    1  UNL1       -0.0003
     16 C           5.4872   42.1833   10.3342 C.ar    1  UNL1       -0.0038
     17 S          10.7689   39.9249    4.7336 S.3     1  UNL1       -0.0865
     18 C          11.6285   40.9222    5.9874 C.3     1  UNL1        0.0680
     19 C          12.1229   40.0431    7.1256 C.3     1  UNL1        0.0594
     20 C          13.2672   40.7100    7.8737 C.3     1  UNL1        0.2063
     21 O          13.6969   41.8723    7.1743 O.3     1  UNL1       -0.4754
     22 C          14.9890   42.3907    7.2995 C.ar    1  UNL1        0.1386
     23 C          15.3752   43.4552    6.4781 C.ar    1  UNL1        0.0369
     24 C          16.6579   44.0012    6.5865 C.ar    1  UNL1        0.0031
     25 C          17.5623   43.4836    7.5180 C.ar    1  UNL1        0.0002
     26 C          17.1851   42.4186    8.3406 C.ar    1  UNL1        0.0031
     27 C          15.9030   41.8727    8.2325 C.ar    1  UNL1        0.0369
@<TRIPOS>BOND
     1     7     8   am
     2    10     7    1
     3    10    11    1
     4    12    13   ar
     5    14    15   ar
     6    16    11   ar
     7     1     5   ar
     8     2    17    1
     9     2     5   ar
    10    18    17    1
    11    18    19    1
    12    19    20    1
    13    20    21    1
    14    22    21    1
    15    23    24   ar
    16    25    26   ar
    17    27    22   ar
    18     8     1    1
    19     3     4   ar
    20     7     6    2
    21    11    12   ar
    22    13    14   ar
    23    15    16   ar
    24     1     3   ar
    25     2     4   ar
    26    22    23   ar
    27    24    25   ar
    28    26    27   ar
    29     8     9    1
@<TRIPOS>MOLECULE
MolPort-016-966-988 ChemDiv-V028-4748 MCULE-1394186303 PubChem-8090288 ZINC000006833642 ZINC06833642
 27 29 0 0 0
SMALL
GASTEIGER

@<TRIPOS>ATOM
      1 C          11.2835   38.7247    8.4867 C.ar    1  UNL1        0.1885
      2 C           9.7849   40.4985    7.9008 C.ar    1  UNL1        0.1606
      3 N          10.1217   38.2860    7.9566 N.ar    1  UNL1       -0.1248
      4 N           9.2881   39.2723    7.6310 N.ar    1  UNL1       -0.1332
      5 S          11.3234   40.4112    8.5774 S.2     1  UNL1       -0.0241
      6 O          11.0749   36.5014   10.3942 O.2     1  UNL1       -0.2744
      7 C          12.1792   36.7512    9.8429 C.2     1  UNL1        0.2320
      8 N          12.3180   37.8284    8.9092 N.am    1  UNL1       -0.2625
      9 H          13.2116   37.9662    8.5196 H       1  UNL1        0.1568
     10 C          13.3573   35.8893   10.1425 C.3     1  UNL1        0.1117
     11 C          14.5466   36.7268   10.4694 C.ar    1  UNL1       -0.0131
     12 C          15.6831   36.6798    9.6538 C.ar    1  UNL1       -0.0038
     13 C          16.7911   37.4796    9.9500 C.ar    1  UNL1       -0.0003
     14 C          16.7629   38.3302   11.0595 C.ar    1  UNL1       -0.0000
     15 C          15.6261   38.3827   11.8720 C.ar    1  UNL1       -0.0003
     16 C          14.5179   37.5829   11.5766 C.ar    1  UNL1       -0.0038
     17 S           8.9016   42.0165    7.5763 S.3     1  UNL1       -0.0865
     18 C           7.6569   41.6436    8.8478 C.3     1  UNL1        0.0680
     19 C           8.3007   41.5700   10.2236 C.3     1  UNL1        0.0594
     20 C           7.5266   42.4026   11.2343 C.3     1  UNL1        0.2063
     21 O           6.4192   41.6611   11.7327 O.3     1  UNL1       -0.4754
     22 C           5.2045   41.5712   11.0469 C.ar    1  UNL1        0.1386
     23 C           4.4700   40.3829   11.1214 C.ar    1  UNL1        0.0369
     24 C           3.2469   40.2659   10.4540 C.ar    1  UNL1        0.0031
     25 C           2.7521   41.3386    9.7068 C.ar    1  UNL1        0.0002
     26 C           3.4810   42.5282    9.6253 C.ar    1  UNL1        0.0031
     27 C           4.7036   42.6453   10.2924 C.ar    1  UNL1        0.0369
@<TRIPOS>BOND
     1     7     8   am
     2    10     7    1
     3    10    11    1
     4    12    13   ar
     5    14    15   ar
     6    16    11   ar
     7     1     5   ar
     8     2    17    1
     9     2     5   ar
    10    18    17    1
    11    18    19    1
    12    19    20    1
    13    20    21    1
    14    22    21    1
    15    23    24   ar
    16    25    26   ar
    17    27    22   ar
    18     8     1    1
    19     3     4   ar
    20     7     6    2
    21    11    12   ar
    22    13    14   ar
    23    15    16   ar
    24     1     3   ar
    25     2     4   ar
    26    22    23   ar
    27    24    25   ar
    28    26    27   ar
    29     8     9    1
@<TRIPOS>MOLECULE
MolPort-016-966-988 ChemDiv-V028-4748 MCULE-1394186303 PubChem-8090288 ZINC000006833642 ZINC06833642
 27 29 0 0 0
SMALL
GASTEIGER

@<TRIPOS>ATOM
      1 C          11.0191   40.8897    6.9088 C.ar    1  UNL1        0.1885
      2 C           8.6652   41.1201    6.5320 C.ar    1  UNL1        0.1606
      3 N          10.7249   41.5101    5.7460 N.ar    1  UNL1       -0.1248
      4 N           9.4159   41.6381    5.5362 N.ar    1  UNL1       -0.1332
      5 S           9.6191   40.4589    7.7507 S.2     1  UNL1       -0.0241
      6 O          12.9493   42.8231    7.9860 O.2     1  UNL1       -0.2744
      7 C          13.2824   41.6165    7.8494 C.2     1  UNL1        0.2320
      8 N          12.3677   40.6466    7.3259 N.am    1  UNL1       -0.2625
      9 H          12.6981   39.7228    7.2449 H       1  UNL1        0.1568
     10 C          14.6441   41.1818    8.2709 C.3     1  UNL1        0.1117
     11 C          15.6564   42.2154    7.9106 C.ar    1  UNL1       -0.0131
     12 C          16.8345   42.3335    8.6571 C.ar    1  UNL1       -0.0038
     13 C          17.7922   43.2902    8.3072 C.ar    1  UNL1       -0.0003
     14 C          17.5753   44.1274    7.2083 C.ar    1  UNL1       -0.0000
     15 C          16.4015   44.0068    6.4580 C.ar    1  UNL1       -0.0003
     16 C          15.4433   43.0505    6.8075 C.ar    1  UNL1       -0.0038
     17 S           6.8793   41.1398    6.5366 S.3     1  UNL1       -0.0865
     18 C           6.8306   42.9249    6.1952 C.3     1  UNL1        0.0680
     19 C           6.8630   43.7200    7.4911 C.3     1  UNL1        0.0594
     20 C           5.5655   44.4878    7.6936 C.3     1  UNL1        0.2063
     21 O           5.0751   44.2796    9.0130 O.3     1  UNL1       -0.4754
     22 C           4.6932   43.0198    9.4833 C.ar    1  UNL1        0.1386
     23 C           3.3818   42.5837    9.2660 C.ar    1  UNL1        0.0369
     24 C           2.9727   41.3248    9.7163 C.ar    1  UNL1        0.0031
     25 C           3.8747   40.4948   10.3880 C.ar    1  UNL1        0.0002
     26 C           5.1859   40.9240   10.6113 C.ar    1  UNL1        0.0031
     27 C           5.5950   42.1824   10.1612 C.ar    1  UNL1        0.0369
@<TRIPOS>BOND
     1     7     8   am
     2    10     7    1
     3    10    11    1
     4    12    13   ar
     5    14    15   ar
     6    16    11   ar
     7     1     5   ar
     8     2    17    1
     9     2     5   ar
    10    18    17    1
    11    18    19    1
    12    19    20    1
    13    20    21    1
    14    22    21    1
    15    23    24   ar
    16    25    26   ar
    17    27    22   ar
    18     8     1    1
    19     3     4   ar
    20     7     6    2
    21    11    12   ar
    22    13    14   ar
    23    15    16   ar
    24     1     3   ar
    25     2     4   ar
    26    22    23   ar
    27    24    25   ar
    28    26    27   ar
    29     8     9    1
@<TRIPOS>MOLECULE
MolPort-016-966-988 ChemDiv-V028-4748 MCULE-1394186303 PubChem-8090288 ZINC000006833642 ZINC06833642
 27 29 0 0 0
SMALL
GASTEIGER

@<TRIPOS>ATOM
      1 C          12.5579   38.8943    8.4652 C.ar    1  UNL1        0.1885
      2 C          13.8825   38.5817   10.4358 C.ar    1  UNL1        0.1606
      3 N          13.1006   37.6608    8.5510 N.ar    1  UNL1       -0.1248
      4 N          13.8374   37.4869    9.6467 N.ar    1  UNL1       -0.1332
      5 S          12.9868   39.8516    9.7895 S.2     1  UNL1       -0.0241
      6 O          12.0576   41.6143    7.4774 O.2     1  UNL1       -0.2744
      7 C          11.5134   40.6320    6.9079 C.2     1  UNL1        0.2320
      8 N          11.7334   39.2920    7.3634 N.am    1  UNL1       -0.2625
      9 H          11.2731   38.5743    6.8712 H       1  UNL1        0.1568
     10 C          10.6492   40.8646    5.7162 C.3     1  UNL1        0.1117
     11 C           9.2089   40.7876    6.0934 C.ar    1  UNL1       -0.0131
     12 C           8.4612   39.6473    5.7773 C.ar    1  UNL1       -0.0038
     13 C           7.1154   39.5676    6.1481 C.ar    1  UNL1       -0.0003
     14 C           6.5164   40.6258    6.8386 C.ar    1  UNL1       -0.0000
     15 C           7.2635   41.7631    7.1602 C.ar    1  UNL1       -0.0003
     16 C           8.6093   41.8437    6.7896 C.ar    1  UNL1       -0.0038
     17 S          14.7898   38.6563   11.9723 S.3     1  UNL1       -0.0865
     18 C          16.3578   38.2546   11.1444 C.3     1  UNL1        0.0680
     19 C          17.3066   39.4424   11.1869 C.3     1  UNL1        0.0594
     20 C          17.6156   39.9452    9.7849 C.3     1  UNL1        0.2063
     21 O          16.4486   40.5120    9.2005 O.3     1  UNL1       -0.4754
     22 C          16.4588   41.7482    8.5481 C.ar    1  UNL1        0.1386
     23 C          15.3996   42.0730    7.6940 C.ar    1  UNL1        0.0369
     24 C          15.3770   43.3059    7.0346 C.ar    1  UNL1        0.0031
     25 C          16.4159   44.2210    7.2262 C.ar    1  UNL1        0.0002
     26 C          17.4790   43.9032    8.0759 C.ar    1  UNL1        0.0031
     27 C          17.5018   42.6709    8.7351 C.ar    1  UNL1        0.0369
@<TRIPOS>BOND
     1     7     8   am
     2    10     7    1
     3    10    11    1
     4    12    13   ar
     5    14    15   ar
     6    16    11   ar
     7     1     5   ar
     8     2    17    1
     9     2     5   ar
    10    18    17    1
    11    18    19    1
    12    19    20    1
    13    20    21    1
    14    22    21    1
    15    23    24   ar
    16    25    26   ar
    17    27    22   ar
    18     8     1    1
    19     3     4   ar
    20     7     6    2
    21    11    12   ar
    22    13    14   ar
    23    15    16   ar
    24     1     3   ar
    25     2     4   ar
    26    22    23   ar
    27    24    25   ar
    28    26    27   ar
    29     8     9    1
@<TRIPOS>MOLECULE
MolPort-016-966-988 ChemDiv-V028-4748 MCULE-1394186303 PubChem-8090288 ZINC000006833642 ZINC06833642
 27 29 0 0 0
SMALL
GASTEIGER

@<TRIPOS>ATOM
      1 C          11.9447   41.3791    9.4547 C.ar    1  UNL1        0.1885
      2 C           9.7492   42.0877   10.0978 C.ar    1  UNL1        0.1606
      3 N          11.1527   40.3607    9.8535 N.ar    1  UNL1       -0.1248
      4 N           9.9318   40.7547   10.2114 N.ar    1  UNL1       -0.1332
      5 S          11.1348   42.8596    9.5348 S.2     1  UNL1       -0.0241
      6 O          14.0492   39.8522   10.8201 O.2     1  UNL1       -0.2744
      7 C          14.2994   40.4208    9.7248 C.2     1  UNL1        0.2320
      8 N          13.2981   41.1750    9.0320 N.am    1  UNL1       -0.2625
      9 H          13.5660   41.5940    8.1824 H       1  UNL1        0.1568
     10 C          15.6543   40.2795    9.1205 C.3     1  UNL1        0.1117
     11 C          16.1113   41.5809    8.5546 C.ar    1  UNL1       -0.0131
     12 C          15.4463   42.1409    7.4577 C.ar    1  UNL1       -0.0038
     13 C          15.8633   43.3707    6.9392 C.ar    1  UNL1       -0.0003
     14 C          16.9431   44.0441    7.5191 C.ar    1  UNL1       -0.0000
     15 C          17.6048   43.4888    8.6186 C.ar    1  UNL1       -0.0003
     16 C          17.1884   42.2589    9.1374 C.ar    1  UNL1       -0.0038
     17 S           8.2188   42.9141   10.5034 S.3     1  UNL1       -0.0865
     18 C           7.9291   43.3750    8.7688 C.3     1  UNL1        0.0680
     19 C           7.9663   42.1461    7.8738 C.3     1  UNL1        0.0594
     20 C           6.6708   41.3556    7.9769 C.3     1  UNL1        0.2063
     21 O           6.3956   41.0434    9.3375 O.3     1  UNL1       -0.4754
     22 C           5.1524   41.2872    9.9285 C.ar    1  UNL1        0.1386
     23 C           4.1715   41.9596    9.1918 C.ar    1  UNL1        0.0369
     24 C           2.9152   42.2098    9.7523 C.ar    1  UNL1        0.0031
     25 C           2.6338   41.7886   11.0550 C.ar    1  UNL1        0.0002
     26 C           3.6091   41.1184   11.7986 C.ar    1  UNL1        0.0031
     27 C           4.8650   40.8682   11.2384 C.ar    1  UNL1        0.0369
@<TRIPOS>BOND
     1     7     8   am
     2    10     7    1
     3    10    11    1
     4    12    13   ar
     5    14    15   ar
     6    16    11   ar
     7     1     5   ar
     8     2    17    1
     9     2     5   ar
    10    18    17    1
    11    18    19    1
    12    19    20    1
    13    20    21    1
    14    22    21    1
    15    23    24   ar
    16    25    26   ar
    17    27    22   ar
    18     8     1    1
    19     3     4   ar
    20     7     6    2
    21    11    12   ar
    22    13    14   ar
    23    15    16   ar
    24     1     3   ar
    25     2     4   ar
    26    22    23   ar
    27    24    25   ar
    28    26    27   ar
    29     8     9    1
@<TRIPOS>MOLECULE
MolPort-016-966-988 ChemDiv-V028-4748 MCULE-1394186303 PubChem-8090288 ZINC000006833642 ZINC06833642
 27 29 0 0 0
SMALL
GASTEIGER

@<TRIPOS>ATOM
      1 C          15.5650   38.4546    9.8387 C.ar    1  UNL1        0.1885
      2 C          14.2095   36.5235   10.2500 C.ar    1  UNL1        0.1606
      3 N          15.5062   38.1144   11.1441 N.ar    1  UNL1       -0.1248
      4 N          14.7523   37.0407   11.3731 N.ar    1  UNL1       -0.1332
      5 S          14.6511   37.4021    8.8841 S.2     1  UNL1       -0.0241
      6 O          14.5567   41.1010    9.0610 O.2     1  UNL1       -0.2744
      7 C          15.7916   40.8609    9.0053 C.2     1  UNL1        0.2320
      8 N          16.3183   39.5814    9.3753 N.am    1  UNL1       -0.2625
      9 H          17.2933   39.4650    9.3041 H       1  UNL1        0.1568
     10 C          16.7273   41.9389    8.5774 C.3     1  UNL1        0.1117
     11 C          16.0808   42.8178    7.5614 C.ar    1  UNL1       -0.0131
     12 C          14.8290   42.4785    7.0353 C.ar    1  UNL1       -0.0038
     13 C          14.2144   43.3130    6.0966 C.ar    1  UNL1       -0.0003
     14 C          14.8487   44.4895    5.6857 C.ar    1  UNL1       -0.0000
     15 C          16.0966   44.8329    6.2147 C.ar    1  UNL1       -0.0003
     16 C          16.7118   43.9988    7.1532 C.ar    1  UNL1       -0.0038
     17 S          13.1516   35.0847   10.2351 S.3     1  UNL1       -0.0865
     18 C          11.6544   36.0998   10.4176 C.3     1  UNL1        0.0680
     19 C          11.6826   37.2755    9.4533 C.3     1  UNL1        0.0594
     20 C          10.2739   37.7456    9.1238 C.3     1  UNL1        0.2063
     21 O          10.2992   39.1019    8.6942 O.3     1  UNL1       -0.4754
     22 C          10.4093   39.4625    7.3481 C.ar    1  UNL1        0.1386
     23 C          11.3373   40.4433    6.9825 C.ar    1  UNL1        0.0369
     24 C          11.4771   40.8186    5.6428 C.ar    1  UNL1        0.0031
     25 C          10.6873   40.2141    4.6608 C.ar    1  UNL1        0.0002
     26 C           9.7561   39.2351    5.0181 C.ar    1  UNL1        0.0031
     27 C           9.6163   38.8598    6.3571 C.ar    1  UNL1        0.0369
@<TRIPOS>BOND
     1     7     8   am
     2    10     7    1
     3    10    11    1
     4    12    13   ar
     5    14    15   ar
     6    16    11   ar
     7     1     5   ar
     8     2    17    1
     9     2     5   ar
    10    18    17    1
    11    18    19    1
    12    19    20    1
    13    20    21    1
    14    22    21    1
    15    23    24   ar
    16    25    26   ar
    17    27    22   ar
    18     8     1    1
    19     3     4   ar
    20     7     6    2
    21    11    12   ar
    22    13    14   ar
    23    15    16   ar
    24     1     3   ar
    25     2     4   ar
    26    22    23   ar
    27    24    25   ar
    28    26    27   ar
    29     8     9    1
@<TRIPOS>MOLECULE
MolPort-016-966-988 ChemDiv-V028-4748 MCULE-1394186303 PubChem-8090288 ZINC000006833642 ZINC06833642
 27 29 0 0 0
SMALL
GASTEIGER

@<TRIPOS>ATOM
      1 C          14.1246   40.1868    8.8678 C.ar    1  UNL1        0.1885
      2 C          13.6280   38.2158   10.1344 C.ar    1  UNL1        0.1606
      3 N          13.8793   40.4401   10.1713 N.ar    1  UNL1       -0.1248
      4 N          13.6029   39.3441   10.8757 N.ar    1  UNL1       -0.1332
      5 S          14.0023   38.5369    8.5253 S.2     1  UNL1       -0.0241
      6 O          12.3228   42.2293    7.7696 O.2     1  UNL1       -0.2744
      7 C          13.5321   42.2081    7.4190 C.2     1  UNL1        0.2320
      8 N          14.4387   41.2256    7.9329 N.am    1  UNL1       -0.2625
      9 H          15.3686   41.2685    7.6123 H       1  UNL1        0.1568
     10 C          14.0381   43.2451    6.4760 C.3     1  UNL1        0.1117
     11 C          15.4855   43.5081    6.7177 C.ar    1  UNL1       -0.0131
     12 C          16.3525   43.7059    5.6369 C.ar    1  UNL1       -0.0038
     13 C          17.7063   43.9714    5.8646 C.ar    1  UNL1       -0.0003
     14 C          18.1943   44.0435    7.1731 C.ar    1  UNL1       -0.0000
     15 C          17.3284   43.8519    8.2541 C.ar    1  UNL1       -0.0003
     16 C          15.9745   43.5861    8.0271 C.ar    1  UNL1       -0.0038
     17 S          13.2981   36.5902   10.7966 S.3     1  UNL1       -0.0865
     18 C          11.5533   36.6642   10.2911 C.3     1  UNL1        0.0680
     19 C          11.3257   37.8076    9.3146 C.3     1  UNL1        0.0594
     20 C           9.9563   37.7031    8.6605 C.3     1  UNL1        0.2063
     21 O           9.8449   38.6512    7.6055 O.3     1  UNL1       -0.4754
     22 C           8.7635   39.5302    7.4953 C.ar    1  UNL1        0.1386
     23 C           8.6939   40.6309    8.3558 C.ar    1  UNL1        0.0369
     24 C           7.6294   41.5329    8.2637 C.ar    1  UNL1        0.0031
     25 C           6.6273   41.3373    7.3092 C.ar    1  UNL1        0.0002
     26 C           6.6881   40.2388    6.4474 C.ar    1  UNL1        0.0031
     27 C           7.7521   39.3371    6.5394 C.ar    1  UNL1        0.0369
@<TRIPOS>BOND
     1     7     8   am
     2    10     7    1
     3    10    11    1
     4    12    13   ar
     5    14    15   ar
     6    16    11   ar
     7     1     5   ar
     8     2    17    1
     9     2     5   ar
    10    18    17    1
    11    18    19    1
    12    19    20    1
    13    20    21    1
    14    22    21    1
    15    23    24   ar
    16    25    26   ar
    17    27    22   ar
    18     8     1    1
    19     3     4   ar
    20     7     6    2
    21    11    12   ar
    22    13    14   ar
    23    15    16   ar
    24     1     3   ar
    25     2     4   ar
    26    22    23   ar
    27    24    25   ar
    28    26    27   ar
    29     8     9    1
