@<TRIPOS>MOLECULE
MolPort-035-706-986 CSSS03437789241 PubChem-102551604
 30 32 0 0 0
SMALL
GASTEIGER

@<TRIPOS>ATOM
      1 C          14.7210   42.8308    6.9796 C.3     1  UNL1        0.2880
      2 C          14.8146   42.5328    5.4904 C.3     1  UNL1        0.0650
      3 C          12.8192   41.9579    8.3796 C.ar    1  UNL1        0.1542
      4 C          11.4566   42.0224    8.6896 C.ar    1  UNL1        0.0529
      5 C          10.9247   41.2359    9.7181 C.ar    1  UNL1        0.0537
      6 C          11.7727   40.3767   10.4343 C.ar    1  UNL1        0.0162
      7 C          13.1336   40.3062   10.1239 C.ar    1  UNL1        0.0190
      8 C          13.6550   41.0975    9.0981 C.ar    1  UNL1        0.0850
      9 C          15.5852   41.8355    7.7305 C.2     1  UNL1        0.2732
     10 O          13.3342   42.7518    7.3487 O.3     1  UNL1       -0.4618
     11 O          16.8057   41.7136    7.4412 O.2     1  UNL1       -0.2704
     12 N          15.0375   41.0257    8.7700 N.am    1  UNL1       -0.2783
     13 H          15.6236   40.4098    9.2663 H       1  UNL1        0.1551
     14 C           8.9327   41.6199   11.2863 C.2     1  UNL1        0.2496
     15 O           9.6475   41.7759   12.3142 O.2     1  UNL1       -0.2698
     16 N           9.5245   41.3403   10.0116 N.am    1  UNL1       -0.2803
     17 H           8.9052   41.2058    9.2583 H       1  UNL1        0.1552
     18 C           7.4733   41.7283   11.3779 C.2     1  UNL1        0.0580
     19 C           6.6853   41.4740   10.3353 C.2     1  UNL1        0.0047
     20 C           5.2203   41.5665   10.4025 C.ar    1  UNL1        0.0001
     21 C           4.5484   41.8240   11.6093 C.ar    1  UNL1        0.0000
     22 C           3.1518   41.8956   11.6361 C.ar    1  UNL1        0.0000
     23 C           2.4199   41.7105   10.4595 C.ar    1  UNL1        0.0000
     24 C           3.0847   41.4573    9.2553 C.ar    1  UNL1        0.0000
     25 C           4.4814   41.3865    9.2281 C.ar    1  UNL1        0.0000
     26 C          15.2173   44.2277    7.2399 C.2     1  UNL1        0.3623
     27 O          14.6374   45.2142    6.7041 O.2     1  UNL1       -0.2457
     28 O          16.3381   44.4263    8.0552 O.3     1  UNL1       -0.4458
     29 C          17.7538   44.4757    6.0974 C.3     1  UNL1        0.0513
     30 C          17.6690   44.2252    7.5933 C.3     1  UNL1        0.2087
@<TRIPOS>BOND
     1    29    30    1
     2    30    28    1
     3    26    28    1
     4     1    26    1
     5     1     2    1
     6     1    10    1
     7     1     9    1
     8     3    10    1
     9     4     5   ar
    10     5    16    1
    11    14    18    1
    12    19    20    1
    13    21    22   ar
    14    23    24   ar
    15    25    20   ar
    16     6     7   ar
    17     8    12    1
    18     8     3   ar
    19    16    14   am
    20    12     9   am
    21    26    27    2
    22     3     4   ar
    23     5     6   ar
    24    14    15    2
    25    18    19    2
    26    20    21   ar
    27    22    23   ar
    28    24    25   ar
    29     7     8   ar
    30     9    11    2
    31    16    17    1
    32    12    13    1
@<TRIPOS>MOLECULE
MolPort-035-706-986 CSSS03437789241 PubChem-102551604
 30 32 0 0 0
SMALL
GASTEIGER

@<TRIPOS>ATOM
      1 C          15.7851   38.7915   10.9395 C.3     1  UNL1        0.2880
      2 C          16.5645   39.1757   12.1885 C.3     1  UNL1        0.0650
      3 C          13.6441   39.9588   10.3130 C.ar    1  UNL1        0.1542
      4 C          12.2931   40.1790   10.6013 C.ar    1  UNL1        0.0529
      5 C          11.5105   40.9826    9.7641 C.ar    1  UNL1        0.0537
      6 C          12.0967   41.5704    8.6321 C.ar    1  UNL1        0.0162
      7 C          13.4474   41.3564    8.3439 C.ar    1  UNL1        0.0190
      8 C          14.2188   40.5502    9.1839 C.ar    1  UNL1        0.0850
      9 C          16.3938   39.5051    9.7471 C.2     1  UNL1        0.2732
     10 O          14.4115   39.1520   11.1606 O.3     1  UNL1       -0.4618
     11 O          17.6200   39.3711    9.4887 O.2     1  UNL1       -0.2704
     12 N          15.5965   40.3340    8.9025 N.am    1  UNL1       -0.2783
     13 H          16.0048   40.7616    8.1153 H       1  UNL1        0.1551
     14 C           9.5160   42.3766   10.5724 C.2     1  UNL1        0.2496
     15 O          10.2030   43.4127   10.7879 O.2     1  UNL1       -0.2698
     16 N          10.1265   41.1738   10.0891 N.am    1  UNL1       -0.2803
     17 H           9.5339   40.3971    9.9672 H       1  UNL1        0.1552
     18 C           8.0690   42.3873   10.8095 C.2     1  UNL1        0.0580
     19 C           7.2123   41.8629    9.9355 C.2     1  UNL1        0.0047
     20 C           5.7590   41.8526   10.1526 C.ar    1  UNL1        0.0001
     21 C           5.1845   41.2753   11.2975 C.ar    1  UNL1        0.0000
     22 C           3.7959   41.2761   11.4651 C.ar    1  UNL1        0.0000
     23 C           2.9749   41.8523   10.4915 C.ar    1  UNL1        0.0000
     24 C           3.5425   42.4311    9.3517 C.ar    1  UNL1        0.0000
     25 C           4.9312   42.4312    9.1843 C.ar    1  UNL1        0.0000
     26 C          15.8732   37.3028   10.7360 C.2     1  UNL1        0.3623
     27 O          16.9820   36.7690   10.4493 O.2     1  UNL1       -0.2457
     28 O          14.7185   36.5178   10.8395 O.3     1  UNL1       -0.4458
     29 C          14.5801   36.6023    8.4284 C.3     1  UNL1        0.0513
     30 C          13.8792   36.2359    9.7254 C.3     1  UNL1        0.2087
@<TRIPOS>BOND
     1    29    30    1
     2    30    28    1
     3    26    28    1
     4     1    26    1
     5     1     2    1
     6     1    10    1
     7     1     9    1
     8     3    10    1
     9     4     5   ar
    10     5    16    1
    11    14    18    1
    12    19    20    1
    13    21    22   ar
    14    23    24   ar
    15    25    20   ar
    16     6     7   ar
    17     8    12    1
    18     8     3   ar
    19    16    14   am
    20    12     9   am
    21    26    27    2
    22     3     4   ar
    23     5     6   ar
    24    14    15    2
    25    18    19    2
    26    20    21   ar
    27    22    23   ar
    28    24    25   ar
    29     7     8   ar
    30     9    11    2
    31    16    17    1
    32    12    13    1
@<TRIPOS>MOLECULE
MolPort-035-706-986 CSSS03437789241 PubChem-102551604
 30 32 0 0 0
SMALL
GASTEIGER

@<TRIPOS>ATOM
      1 C          15.8365   39.3585   10.0993 C.3     1  UNL1        0.2880
      2 C          16.7397   40.3734    9.4143 C.3     1  UNL1        0.0650
      3 C          13.3431   39.3685    9.7500 C.ar    1  UNL1        0.1542
      4 C          12.1225   40.0115    9.9812 C.ar    1  UNL1        0.0529
      5 C          10.9250   39.4450    9.5293 C.ar    1  UNL1        0.0537
      6 C          10.9611   38.2247    8.8364 C.ar    1  UNL1        0.0162
      7 C          12.1793   37.5821    8.5993 C.ar    1  UNL1        0.0190
      8 C          13.3682   38.1541    9.0573 C.ar    1  UNL1        0.0850
      9 C          15.8347   38.0795    9.2834 C.2     1  UNL1        0.2732
     10 O          14.5307   39.9488   10.2095 O.3     1  UNL1       -0.4618
     11 O          16.9212   37.5018    9.0115 O.2     1  UNL1       -0.2704
     12 N          14.6135   37.5109    8.8130 N.am    1  UNL1       -0.2783
     13 H          14.6328   36.6629    8.3132 H       1  UNL1        0.1551
     14 C           9.5454   41.4681   10.2899 C.2     1  UNL1        0.2496
     15 O          10.5537   42.1734   10.5687 O.2     1  UNL1       -0.2698
     16 N           9.6939   40.1308    9.7971 N.am    1  UNL1       -0.2803
     17 H           8.8640   39.6302    9.6242 H       1  UNL1        0.1552
     18 C           8.1940   42.0107   10.4613 C.2     1  UNL1        0.0580
     19 C           7.1153   41.3459   10.0523 C.2     1  UNL1        0.0047
     20 C           5.7500   41.8627   10.2198 C.ar    1  UNL1        0.0001
     21 C           4.9772   41.5615   11.3539 C.ar    1  UNL1        0.0000
     22 C           3.6775   42.0641   11.4739 C.ar    1  UNL1        0.0000
     23 C           3.1434   42.8688   10.4633 C.ar    1  UNL1        0.0000
     24 C           3.9102   43.1739    9.3342 C.ar    1  UNL1        0.0000
     25 C           5.2103   42.6721    9.2143 C.ar    1  UNL1        0.0000
     26 C          16.3633   39.0757   11.4805 C.2     1  UNL1        0.3623
     27 O          15.5823   38.6563   12.3809 O.2     1  UNL1       -0.2457
     28 O          17.7141   39.3042   11.7693 O.3     1  UNL1       -0.4458
     29 C          19.1475   37.4743   11.1084 C.3     1  UNL1        0.0513
     30 C          18.7630   38.9269   10.8846 C.3     1  UNL1        0.2087
@<TRIPOS>BOND
     1    29    30    1
     2    30    28    1
     3    26    28    1
     4     1    26    1
     5     1     2    1
     6     1    10    1
     7     1     9    1
     8     3    10    1
     9     4     5   ar
    10     5    16    1
    11    14    18    1
    12    19    20    1
    13    21    22   ar
    14    23    24   ar
    15    25    20   ar
    16     6     7   ar
    17     8    12    1
    18     8     3   ar
    19    16    14   am
    20    12     9   am
    21    26    27    2
    22     3     4   ar
    23     5     6   ar
    24    14    15    2
    25    18    19    2
    26    20    21   ar
    27    22    23   ar
    28    24    25   ar
    29     7     8   ar
    30     9    11    2
    31    16    17    1
    32    12    13    1
@<TRIPOS>MOLECULE
MolPort-035-706-986 CSSS03437789241 PubChem-102551604
 30 32 0 0 0
SMALL
GASTEIGER

@<TRIPOS>ATOM
      1 C          16.4858   42.6244    7.5879 C.3     1  UNL1        0.2880
      2 C          16.8630   42.4662    6.1223 C.3     1  UNL1        0.0650
      3 C          14.3796   41.6093    8.5219 C.ar    1  UNL1        0.1542
      4 C          12.9819   41.6332    8.5747 C.ar    1  UNL1        0.0529
      5 C          12.2880   40.7504    9.4105 C.ar    1  UNL1        0.0537
      6 C          13.0096   39.8360   10.1938 C.ar    1  UNL1        0.0162
      7 C          14.4059   39.8062   10.1397 C.ar    1  UNL1        0.0190
      8 C          15.0888   40.6935    9.3049 C.ar    1  UNL1        0.0850
      9 C          17.2204   41.5713    8.3960 C.2     1  UNL1        0.2732
     10 O          15.0571   42.4996    7.6812 O.3     1  UNL1       -0.4618
     11 O          18.4761   41.4872    8.3316 O.2     1  UNL1       -0.2704
     12 N          16.5096   40.6643    9.2375 N.am    1  UNL1       -0.2783
     13 H          17.0085   40.0101    9.7782 H       1  UNL1        0.1551
     14 C           9.9608   40.6118    8.3431 C.2     1  UNL1        0.2496
     15 O          10.3998   40.3740    7.1844 O.2     1  UNL1       -0.2698
     16 N          10.8555   40.8152    9.4437 N.am    1  UNL1       -0.2803
     17 H          10.4438   41.0210   10.3140 H       1  UNL1        0.1552
     18 C           8.5164   40.6791    8.5865 C.2     1  UNL1        0.0580
     19 C           7.9998   41.4761    9.5196 C.2     1  UNL1        0.0047
     20 C           6.5561   41.5691    9.7777 C.ar    1  UNL1        0.0001
     21 C           5.6341   41.8254    8.7491 C.ar    1  UNL1        0.0000
     22 C           4.2679   41.9163    9.0347 C.ar    1  UNL1        0.0000
     23 C           3.8161   41.7522   10.3474 C.ar    1  UNL1        0.0000
     24 C           4.7300   41.4935   11.3740 C.ar    1  UNL1        0.0000
     25 C           6.0962   41.4017   11.0885 C.ar    1  UNL1        0.0000
     26 C          16.8887   43.9954    8.0603 C.2     1  UNL1        0.3623
     27 O          17.2512   44.1696    9.2582 O.2     1  UNL1       -0.2457
     28 O          16.8347   45.0791    7.1754 O.3     1  UNL1       -0.4458
     29 C          14.8471   45.4188    5.8436 C.3     1  UNL1        0.0513
     30 C          16.2987   44.9715    5.8615 C.3     1  UNL1        0.2087
@<TRIPOS>BOND
     1    29    30    1
     2    30    28    1
     3    26    28    1
     4     1    26    1
     5     1     2    1
     6     1    10    1
     7     1     9    1
     8     3    10    1
     9     4     5   ar
    10     5    16    1
    11    14    18    1
    12    19    20    1
    13    21    22   ar
    14    23    24   ar
    15    25    20   ar
    16     6     7   ar
    17     8    12    1
    18     8     3   ar
    19    16    14   am
    20    12     9   am
    21    26    27    2
    22     3     4   ar
    23     5     6   ar
    24    14    15    2
    25    18    19    2
    26    20    21   ar
    27    22    23   ar
    28    24    25   ar
    29     7     8   ar
    30     9    11    2
    31    16    17    1
    32    12    13    1
@<TRIPOS>MOLECULE
MolPort-035-706-986 CSSS03437789241 PubChem-102551604
 30 32 0 0 0
SMALL
GASTEIGER

@<TRIPOS>ATOM
      1 C          18.4885   34.0165   14.9569 C.3     1  UNL1        0.2880
      2 C          19.2573   34.3376   16.2302 C.3     1  UNL1        0.0650
      3 C          18.6200   35.5037   12.9296 C.ar    1  UNL1        0.1542
      4 C          18.2885   36.7295   12.3428 C.ar    1  UNL1        0.0529
      5 C          18.6303   36.9947   11.0116 C.ar    1  UNL1        0.0537
      6 C          19.3143   36.0182   10.2707 C.ar    1  UNL1        0.0162
      7 C          19.6514   34.7943   10.8554 C.ar    1  UNL1        0.0190
      8 C          19.3028   34.5384   12.1833 C.ar    1  UNL1        0.0850
      9 C          19.2913   33.0202   14.1418 C.2     1  UNL1        0.2732
     10 O          18.2698   35.2551   14.2615 O.3     1  UNL1       -0.4618
     11 O          19.6521   31.9278   14.6560 O.2     1  UNL1       -0.2704
     12 N          19.6494   33.2985   12.7888 N.am    1  UNL1       -0.2783
     13 H          20.1425   32.6241   12.2679 H       1  UNL1        0.1551
     14 C          17.6941   39.3785   11.1364 C.2     1  UNL1        0.2496
     15 O          17.4343   39.3159   12.3695 O.2     1  UNL1       -0.2698
     16 N          18.2619   38.2596   10.4444 N.am    1  UNL1       -0.2803
     17 H          18.4153   38.3707    9.4783 H       1  UNL1        0.1552
     18 C          17.4226   40.6084   10.3856 C.2     1  UNL1        0.0580
     19 C          17.0123   40.5798    9.1194 C.2     1  UNL1        0.0047
     20 C          16.7249   41.7967    8.3474 C.ar    1  UNL1        0.0001
     21 C          17.6503   42.8495    8.2511 C.ar    1  UNL1        0.0000
     22 C          17.3375   43.9967    7.5147 C.ar    1  UNL1        0.0000
     23 C          16.1004   44.0985    6.8717 C.ar    1  UNL1        0.0000
     24 C          15.1774   43.0516    6.9620 C.ar    1  UNL1        0.0000
     25 C          15.4903   41.9039    7.6977 C.ar    1  UNL1        0.0000
     26 C          17.1562   33.4166   15.3178 C.2     1  UNL1        0.3623
     27 O          16.1121   34.1272   15.2789 O.2     1  UNL1       -0.2457
     28 O          17.0832   32.0779   15.7213 O.3     1  UNL1       -0.4458
     29 C          16.6295   31.6081   18.0479 C.3     1  UNL1        0.0513
     30 C          17.6621   31.6087   16.9337 C.3     1  UNL1        0.2087
@<TRIPOS>BOND
     1    29    30    1
     2    30    28    1
     3    26    28    1
     4     1    26    1
     5     1     2    1
     6     1    10    1
     7     1     9    1
     8     3    10    1
     9     4     5   ar
    10     5    16    1
    11    14    18    1
    12    19    20    1
    13    21    22   ar
    14    23    24   ar
    15    25    20   ar
    16     6     7   ar
    17     8    12    1
    18     8     3   ar
    19    16    14   am
    20    12     9   am
    21    26    27    2
    22     3     4   ar
    23     5     6   ar
    24    14    15    2
    25    18    19    2
    26    20    21   ar
    27    22    23   ar
    28    24    25   ar
    29     7     8   ar
    30     9    11    2
    31    16    17    1
    32    12    13    1
@<TRIPOS>MOLECULE
MolPort-035-706-986 CSSS03437789241 PubChem-102551604
 30 32 0 0 0
SMALL
GASTEIGER

@<TRIPOS>ATOM
      1 C          14.9680   38.5602   10.8669 C.3     1  UNL1        0.2880
      2 C          15.5255   38.7346   12.2719 C.3     1  UNL1        0.0650
      3 C          13.3355   40.2062    9.8848 C.ar    1  UNL1        0.1542
      4 C          12.0404   40.7346    9.9001 C.ar    1  UNL1        0.0529
      5 C          11.6607   41.7101    8.9709 C.ar    1  UNL1        0.0537
      6 C          12.5955   42.1573    8.0241 C.ar    1  UNL1        0.0162
      7 C          13.8918   41.6351    8.0092 C.ar    1  UNL1        0.0190
      8 C          14.2596   40.6597    8.9385 C.ar    1  UNL1        0.0850
      9 C          15.9658   39.1252    9.8736 C.2     1  UNL1        0.2732
     10 O          13.6978   39.2310   10.8208 O.3     1  UNL1       -0.4618
     11 O          17.1555   38.7095    9.8669 O.2     1  UNL1       -0.2704
     12 N          15.5795   40.1288    8.9357 N.am    1  UNL1       -0.2783
     13 H          16.2345   40.4580    8.2786 H       1  UNL1        0.1551
     14 C           9.8503   43.3417    9.7679 C.2     1  UNL1        0.2496
     15 O          10.6288   43.9900   10.5201 O.2     1  UNL1       -0.2698
     16 N          10.3197   42.2176    9.0135 N.am    1  UNL1       -0.2803
     17 H           9.6518   41.7438    8.4670 H       1  UNL1        0.1552
     18 C           8.4426   43.7339    9.6475 C.2     1  UNL1        0.0580
     19 C           7.6409   43.1934    8.7322 C.2     1  UNL1        0.0047
     20 C           6.2249   43.5619    8.5961 C.ar    1  UNL1        0.0001
     21 C           5.8113   44.6270    7.7785 C.ar    1  UNL1        0.0000
     22 C           4.4550   44.9544    7.6813 C.ar    1  UNL1        0.0000
     23 C           3.5059   44.2209    8.3993 C.ar    1  UNL1        0.0000
     24 C           3.9127   43.1577    9.2118 C.ar    1  UNL1        0.0000
     25 C           5.2689   42.8296    9.3085 C.ar    1  UNL1        0.0000
     26 C          14.7574   37.0952   10.5933 C.2     1  UNL1        0.3623
     27 O          13.9148   36.4409   11.2704 O.2     1  UNL1       -0.2457
     28 O          15.5167   36.4567    9.6053 O.3     1  UNL1       -0.4458
     29 C          16.0813   35.5826    7.4242 C.3     1  UNL1        0.0513
     30 C          14.9824   36.1042    8.3343 C.3     1  UNL1        0.2087
@<TRIPOS>BOND
     1    29    30    1
     2    30    28    1
     3    26    28    1
     4     1    26    1
     5     1     2    1
     6     1    10    1
     7     1     9    1
     8     3    10    1
     9     4     5   ar
    10     5    16    1
    11    14    18    1
    12    19    20    1
    13    21    22   ar
    14    23    24   ar
    15    25    20   ar
    16     6     7   ar
    17     8    12    1
    18     8     3   ar
    19    16    14   am
    20    12     9   am
    21    26    27    2
    22     3     4   ar
    23     5     6   ar
    24    14    15    2
    25    18    19    2
    26    20    21   ar
    27    22    23   ar
    28    24    25   ar
    29     7     8   ar
    30     9    11    2
    31    16    17    1
    32    12    13    1
@<TRIPOS>MOLECULE
MolPort-035-706-986 CSSS03437789241 PubChem-102551604
 30 32 0 0 0
SMALL
GASTEIGER

@<TRIPOS>ATOM
      1 C           5.3630   41.9048    9.6477 C.3     1  UNL1        0.2880
      2 C           5.2819   41.2767   11.0312 C.3     1  UNL1        0.0650
      3 C           7.4555   41.7565    8.2554 C.ar    1  UNL1        0.1542
      4 C           8.7834   42.1582    8.0759 C.ar    1  UNL1        0.0529
      5 C           9.5066   41.7376    6.9537 C.ar    1  UNL1        0.0537
      6 C           8.8865   40.9035    6.0102 C.ar    1  UNL1        0.0162
      7 C           7.5616   40.4964    6.1890 C.ar    1  UNL1        0.0190
      8 C           6.8477   40.9243    7.3105 C.ar    1  UNL1        0.0850
      9 C           4.7573   40.9450    8.6411 C.2     1  UNL1        0.2732
     10 O           6.7471   42.1871    9.3829 O.3     1  UNL1       -0.4618
     11 O           3.5811   40.5214    8.8000 O.2     1  UNL1       -0.2704
     12 N           5.5013   40.5078    7.5046 N.am    1  UNL1       -0.2783
     13 H           5.0775   39.9105    6.8466 H       1  UNL1        0.1551
     14 C          12.0407   41.3669    6.8292 C.2     1  UNL1        0.2496
     15 O          11.9666   40.1237    7.0317 O.2     1  UNL1       -0.2698
     16 N          10.8621   42.1813    6.8014 N.am    1  UNL1       -0.2803
     17 H          10.9968   43.1467    6.6632 H       1  UNL1        0.1552
     18 C          13.3435   42.0037    6.6117 C.2     1  UNL1        0.0580
     19 C          14.2702   42.0466    7.5667 C.2     1  UNL1        0.0047
     20 C          15.5864   42.6704    7.3722 C.ar    1  UNL1        0.0001
     21 C          16.6976   42.3164    8.1556 C.ar    1  UNL1        0.0000
     22 C          17.9327   42.9389    7.9476 C.ar    1  UNL1        0.0000
     23 C          18.0642   43.9171    6.9576 C.ar    1  UNL1        0.0000
     24 C          16.9615   44.2703    6.1731 C.ar    1  UNL1        0.0000
     25 C          15.7265   43.6473    6.3804 C.ar    1  UNL1        0.0000
     26 C           4.5907   43.1967    9.6416 C.2     1  UNL1        0.3623
     27 O           5.1258   44.2503    9.1942 O.2     1  UNL1       -0.2457
     28 O           3.2894   43.2308   10.1571 O.3     1  UNL1       -0.4458
     29 C           2.2608   42.4693   12.2069 C.3     1  UNL1        0.0513
     30 C           2.6859   42.1101   10.7934 C.3     1  UNL1        0.2087
@<TRIPOS>BOND
     1    29    30    1
     2    30    28    1
     3    26    28    1
     4     1    26    1
     5     1     2    1
     6     1    10    1
     7     1     9    1
     8     3    10    1
     9     4     5   ar
    10     5    16    1
    11    14    18    1
    12    19    20    1
    13    21    22   ar
    14    23    24   ar
    15    25    20   ar
    16     6     7   ar
    17     8    12    1
    18     8     3   ar
    19    16    14   am
    20    12     9   am
    21    26    27    2
    22     3     4   ar
    23     5     6   ar
    24    14    15    2
    25    18    19    2
    26    20    21   ar
    27    22    23   ar
    28    24    25   ar
    29     7     8   ar
    30     9    11    2
    31    16    17    1
    32    12    13    1
@<TRIPOS>MOLECULE
MolPort-035-706-986 CSSS03437789241 PubChem-102551604
 30 32 0 0 0
SMALL
GASTEIGER

@<TRIPOS>ATOM
      1 C           8.2180   40.5582    7.0041 C.3     1  UNL1        0.2880
      2 C           9.4935   40.1654    7.7348 C.3     1  UNL1        0.0650
      3 C           6.2980   41.6577    8.2058 C.ar    1  UNL1        0.1542
      4 C           5.2533   41.5271    9.1268 C.ar    1  UNL1        0.0529
      5 C           4.3860   42.5978    9.3729 C.ar    1  UNL1        0.0537
      6 C           4.5777   43.8081    8.6882 C.ar    1  UNL1        0.0162
      7 C           5.6235   43.9435    7.7710 C.ar    1  UNL1        0.0190
      8 C           6.4813   42.8681    7.5303 C.ar    1  UNL1        0.0850
      9 C           8.4316   41.9064    6.3421 C.2     1  UNL1        0.2732
     10 O           7.1552   40.5766    7.9716 O.3     1  UNL1       -0.4618
     11 O           9.3947   42.0745    5.5469 O.2     1  UNL1       -0.2704
     12 N           7.5534   43.0000    6.6045 N.am    1  UNL1       -0.2783
     13 H           7.6912   43.8566    6.1391 H       1  UNL1        0.1551
     14 C           3.3994   41.7595   11.5862 C.2     1  UNL1        0.2496
     15 O           4.4757   41.2296   11.9772 O.2     1  UNL1       -0.2698
     16 N           3.3205   42.4188   10.3165 N.am    1  UNL1       -0.2803
     17 H           2.4430   42.7877   10.0653 H       1  UNL1        0.1552
     18 C           2.2033   41.7143   12.4331 C.2     1  UNL1        0.0580
     19 C           1.5138   42.8137   12.7304 C.2     1  UNL1        0.0047
     20 C           0.3073   42.7950   13.5691 C.ar    1  UNL1        0.0001
     21 C          -0.3780   43.9736   13.9086 C.ar    1  UNL1        0.0000
     22 C          -1.5178   43.9172   14.7172 C.ar    1  UNL1        0.0000
     23 C          -1.9785   42.6852   15.1906 C.ar    1  UNL1        0.0000
     24 C          -1.3014   41.5090   14.8524 C.ar    1  UNL1        0.0000
     25 C          -0.1620   41.5651   14.0431 C.ar    1  UNL1        0.0000
     26 C           7.9066   39.5244    5.9555 C.2     1  UNL1        0.3623
     27 O           6.7102   39.3235    5.6022 O.2     1  UNL1       -0.2457
     28 O           8.9437   38.7698    5.3940 O.3     1  UNL1       -0.4458
     29 C           9.5417   37.9536    3.1995 C.3     1  UNL1        0.0513
     30 C           9.5739   39.1235    4.1681 C.3     1  UNL1        0.2087
@<TRIPOS>BOND
     1    29    30    1
     2    30    28    1
     3    26    28    1
     4     1    26    1
     5     1     2    1
     6     1    10    1
     7     1     9    1
     8     3    10    1
     9     4     5   ar
    10     5    16    1
    11    14    18    1
    12    19    20    1
    13    21    22   ar
    14    23    24   ar
    15    25    20   ar
    16     6     7   ar
    17     8    12    1
    18     8     3   ar
    19    16    14   am
    20    12     9   am
    21    26    27    2
    22     3     4   ar
    23     5     6   ar
    24    14    15    2
    25    18    19    2
    26    20    21   ar
    27    22    23   ar
    28    24    25   ar
    29     7     8   ar
    30     9    11    2
    31    16    17    1
    32    12    13    1
@<TRIPOS>MOLECULE
MolPort-035-706-986 CSSS03437789241 PubChem-102551604
 30 32 0 0 0
SMALL
GASTEIGER

@<TRIPOS>ATOM
      1 C           5.1407   42.3510    9.6354 C.3     1  UNL1        0.2880
      2 C           4.6937   42.1152   11.0706 C.3     1  UNL1        0.0650
      3 C           7.4287   41.6646    8.8398 C.ar    1  UNL1        0.1542
      4 C           8.8087   41.8895    8.8827 C.ar    1  UNL1        0.0529
      5 C           9.6766   41.1299    8.0896 C.ar    1  UNL1        0.0537
      6 C           9.1481   40.1351    7.2521 C.ar    1  UNL1        0.0162
      7 C           7.7703   39.9045    7.2105 C.ar    1  UNL1        0.0190
      8 C           6.9126   40.6702    8.0033 C.ar    1  UNL1        0.0850
      9 C           4.6211   41.2176    8.7712 C.2     1  UNL1        0.2732
     10 O           6.5756   42.4339    9.6389 O.3     1  UNL1       -0.4618
     11 O           3.3891   40.9533    8.7491 O.2     1  UNL1       -0.2704
     12 N           5.5096   40.4365    7.9734 N.am    1  UNL1       -0.2783
     13 H           5.1472   39.7270    7.3950 H       1  UNL1        0.1551
     14 C          12.1223   40.7246    7.4343 C.2     1  UNL1        0.2496
     15 O          11.8574   39.7622    6.6626 O.2     1  UNL1       -0.2698
     16 N          11.0839   41.3999    8.1547 N.am    1  UNL1       -0.2803
     17 H          11.3659   42.1253    8.7576 H       1  UNL1        0.1552
     18 C          13.5071   41.1757    7.6044 C.2     1  UNL1        0.0580
     19 C          13.9611   42.2802    7.0157 C.2     1  UNL1        0.0047
     20 C          15.3410   42.7590    7.1766 C.ar    1  UNL1        0.0001
     21 C          15.8625   43.7970    6.3863 C.ar    1  UNL1        0.0000
     22 C          17.1842   44.2196    6.5618 C.ar    1  UNL1        0.0000
     23 C          17.9910   43.6086    7.5261 C.ar    1  UNL1        0.0000
     24 C          17.4751   42.5771    8.3174 C.ar    1  UNL1        0.0000
     25 C          16.1531   42.1549    8.1426 C.ar    1  UNL1        0.0000
     26 C           4.5767   43.6581    9.1468 C.2     1  UNL1        0.3623
     27 O           3.3305   43.7860    8.9819 O.2     1  UNL1       -0.2457
     28 O           5.4397   44.7203    8.8514 O.3     1  UNL1       -0.4458
     29 C           7.7561   45.3961    8.9834 C.3     1  UNL1        0.0513
     30 C           6.7284   44.5264    8.2797 C.3     1  UNL1        0.2087
@<TRIPOS>BOND
     1    29    30    1
     2    30    28    1
     3    26    28    1
     4     1    26    1
     5     1     2    1
     6     1    10    1
     7     1     9    1
     8     3    10    1
     9     4     5   ar
    10     5    16    1
    11    14    18    1
    12    19    20    1
    13    21    22   ar
    14    23    24   ar
    15    25    20   ar
    16     6     7   ar
    17     8    12    1
    18     8     3   ar
    19    16    14   am
    20    12     9   am
    21    26    27    2
    22     3     4   ar
    23     5     6   ar
    24    14    15    2
    25    18    19    2
    26    20    21   ar
    27    22    23   ar
    28    24    25   ar
    29     7     8   ar
    30     9    11    2
    31    16    17    1
    32    12    13    1
@<TRIPOS>MOLECULE
MolPort-035-706-986 CSSS03437789241 PubChem-102551604
 30 32 0 0 0
SMALL
GASTEIGER

@<TRIPOS>ATOM
      1 C           6.7976   42.9750    8.0816 C.3     1  UNL1        0.2880
      2 C           6.5248   43.4050    6.6478 C.3     1  UNL1        0.0650
      3 C           8.9477   41.8353    8.7275 C.ar    1  UNL1        0.1542
      4 C           9.7402   40.6848    8.6559 C.ar    1  UNL1        0.0529
      5 C          10.9575   40.6176    9.3436 C.ar    1  UNL1        0.0537
      6 C          11.3785   41.7198   10.1040 C.ar    1  UNL1        0.0162
      7 C          10.5914   42.8726   10.1737 C.ar    1  UNL1        0.0190
      8 C           9.3769   42.9283    9.4865 C.ar    1  UNL1        0.0850
      9 C           7.3261   44.1680    8.8554 C.2     1  UNL1        0.2732
     10 O           7.7332   41.8849    8.0342 O.3     1  UNL1       -0.4618
     11 O           6.6626   45.2385    8.8973 O.2     1  UNL1       -0.2704
     12 N           8.5735   44.1010    9.5451 N.am    1  UNL1       -0.2783
     13 H           8.8821   44.8760   10.0681 H       1  UNL1        0.1551
     14 C          12.7166   38.9548   10.1896 C.2     1  UNL1        0.2496
     15 O          13.0068   39.6333   11.2130 O.2     1  UNL1       -0.2698
     16 N          11.7347   39.4153    9.2531 N.am    1  UNL1       -0.2803
     17 H          11.5768   38.8469    8.4649 H       1  UNL1        0.1552
     18 C          13.3801   37.6708    9.9419 C.2     1  UNL1        0.0580
     19 C          14.5033   37.5885    9.2319 C.2     1  UNL1        0.0047
     20 C          15.1929   36.3162    8.9765 C.ar    1  UNL1        0.0001
     21 C          14.4962   35.0989    8.8938 C.ar    1  UNL1        0.0000
     22 C          15.1881   33.9064    8.6587 C.ar    1  UNL1        0.0000
     23 C          16.5774   33.9231    8.5054 C.ar    1  UNL1        0.0000
     24 C          17.2748   35.1330    8.5836 C.ar    1  UNL1        0.0000
     25 C          16.5830   36.3259    8.8179 C.ar    1  UNL1        0.0000
     26 C           5.5171   42.4932    8.7090 C.2     1  UNL1        0.3623
     27 O           4.4877   43.2256    8.6857 O.2     1  UNL1       -0.2457
     28 O           5.4795   41.2439    9.3400 O.3     1  UNL1       -0.4458
     29 C           4.4477   40.7966   11.4790 C.3     1  UNL1        0.0513
     30 C           4.3078   40.7355    9.9675 C.3     1  UNL1        0.2087
@<TRIPOS>BOND
     1    29    30    1
     2    30    28    1
     3    26    28    1
     4     1    26    1
     5     1     2    1
     6     1    10    1
     7     1     9    1
     8     3    10    1
     9     4     5   ar
    10     5    16    1
    11    14    18    1
    12    19    20    1
    13    21    22   ar
    14    23    24   ar
    15    25    20   ar
    16     6     7   ar
    17     8    12    1
    18     8     3   ar
    19    16    14   am
    20    12     9   am
    21    26    27    2
    22     3     4   ar
    23     5     6   ar
    24    14    15    2
    25    18    19    2
    26    20    21   ar
    27    22    23   ar
    28    24    25   ar
    29     7     8   ar
    30     9    11    2
    31    16    17    1
    32    12    13    1
