@<TRIPOS>MOLECULE
MolPort-020-295-383 MCULE-9763602010 PubChem-110267464
 34 37 0 0 0
SMALL
GASTEIGER

@<TRIPOS>ATOM
      1 C          13.0652   39.1385   10.3357 C.3     1  UNL1        0.0603
      2 C          12.6467   37.8032    9.7140 C.3     1  UNL1        0.0094
      3 C          11.1451   37.7930    9.4364 C.3     1  UNL1        0.0219
      4 C          10.7788   38.9491    8.5115 C.3     1  UNL1        0.0934
      5 C          12.6714   40.3071    9.4308 C.3     1  UNL1        0.0992
      6 C          10.3602   41.2968    9.3411 C.2     1  UNL1        0.2257
      7 N          11.2558   40.2034    9.0892 N.am    1  UNL1       -0.2792
      8 O          10.7951   42.3700    9.8384 O.2     1  UNL1       -0.2749
      9 C          16.6763   40.0477   10.1593 C.ar    1  UNL1        0.2214
     10 C          16.4567   38.3948   11.8399 C.ar    1  UNL1        0.1031
     11 C          15.0834   38.3317   11.6145 C.ar    1  UNL1        0.0356
     12 C          14.5308   39.1612   10.6327 C.ar    1  UNL1        0.0647
     13 N          17.2250   39.2466   11.1131 N.ar    1  UNL1       -0.2120
     14 N          15.3378   39.9967    9.9272 N.ar    1  UNL1       -0.2179
     15 N          17.4850   40.9451    9.3891 N.pl3   1  UNL1       -0.2680
     16 H          18.4608   40.8348    9.4586 H       1  UNL1        0.1565
     17 C          15.6220   45.1002    5.9674 C.3     1  UNL1        0.0327
     18 C          16.1170   44.0205    6.8607 C.ar    1  UNL1       -0.0026
     19 C          15.3347   42.8894    7.1001 C.ar    1  UNL1        0.0960
     20 C          17.0117   41.9876    8.5275 C.ar    1  UNL1        0.1343
     21 C          17.8204   43.1063    8.3076 C.ar    1  UNL1        0.0342
     22 C          17.3685   44.1263    7.4684 C.ar    1  UNL1        0.0001
     23 N          15.7940   41.9059    7.9202 N.ar    1  UNL1       -0.2293
     24 C           8.9121   41.1990    8.9925 C.3     1  UNL1        0.0870
     25 C           8.1465   42.3225    9.6618 C.3     1  UNL1        0.0310
     26 C           7.2499   41.7483   10.7426 C.3     1  UNL1        0.0913
     27 C           4.9593   40.7432   10.7751 C.3     1  UNL1        0.1122
     28 N           5.8549   41.7998   10.3214 N.pl3   1  UNL1       -0.3058
     29 C           5.3919   42.8267    9.4241 C.ar    1  UNL1        0.0479
     30 C           4.0406   43.2129    9.4155 C.ar    1  UNL1        0.0145
     31 C           3.5901   44.2064    8.5419 C.ar    1  UNL1        0.0013
     32 C           4.4849   44.8243    7.6658 C.ar    1  UNL1        0.0001
     33 C           5.8304   44.4494    7.6629 C.ar    1  UNL1        0.0013
     34 C           6.2813   43.4562    8.5368 C.ar    1  UNL1        0.0145
@<TRIPOS>BOND
     1    17    18    1
     2    19    23   ar
     3    20    21   ar
     4    20    15    1
     5    22    18   ar
     6     9    14   ar
     7    10    13   ar
     8    11    12   ar
     9     1    12    1
    10     1     2    1
    11     2     3    1
    12     3     4    1
    13     4     7    1
    14     5     7    1
    15     5     1    1
    16    24     6    1
    17    24    25    1
    18    25    26    1
    19    26    28    1
    20    27    28    1
    21    30    31   ar
    22    32    33   ar
    23    34    29   ar
    24    15     9    1
    25     7     6   am
    26    28    29    1
    27    18    19   ar
    28    20    23   ar
    29    21    22   ar
    30     9    13   ar
    31    10    11   ar
    32    12    14   ar
    33     6     8    2
    34    29    30   ar
    35    31    32   ar
    36    33    34   ar
    37    15    16    1
@<TRIPOS>MOLECULE
MolPort-020-295-383 MCULE-9763602010 PubChem-110267464
 34 37 0 0 0
SMALL
GASTEIGER

@<TRIPOS>ATOM
      1 C          13.0247   39.1207   10.1922 C.3     1  UNL1        0.0603
      2 C          12.5982   37.7287    9.7177 C.3     1  UNL1        0.0094
      3 C          11.1029   37.7070    9.4085 C.3     1  UNL1        0.0219
      4 C          10.7751   38.7543    8.3492 C.3     1  UNL1        0.0934
      5 C          12.6691   40.1830    9.1508 C.3     1  UNL1        0.0992
      6 C          10.3766   41.1871    8.8950 C.2     1  UNL1        0.2257
      7 N          11.2597   40.0600    8.7906 N.am    1  UNL1       -0.2792
      8 O          10.8180   42.3042    9.2763 O.2     1  UNL1       -0.2749
      9 C          16.6247   40.0851   10.1077 C.ar    1  UNL1        0.2214
     10 C          16.3969   38.3912   11.7458 C.ar    1  UNL1        0.1031
     11 C          15.0294   38.3137   11.4920 C.ar    1  UNL1        0.0356
     12 C          14.4837   39.1575   10.5185 C.ar    1  UNL1        0.0647
     13 N          17.1666   39.2704   11.0537 N.ar    1  UNL1       -0.2120
     14 N          15.2919   40.0204    9.8481 N.ar    1  UNL1       -0.2179
     15 N          17.4349   41.0114    9.3740 N.pl3   1  UNL1       -0.2680
     16 H          18.4105   40.9238    9.4730 H       1  UNL1        0.1565
     17 C          15.5425   45.1400    5.9364 C.3     1  UNL1        0.0327
     18 C          16.0273   44.0582    6.8327 C.ar    1  UNL1       -0.0026
     19 C          17.2695   44.1665    7.4605 C.ar    1  UNL1        0.0960
     20 C          16.9634   42.0528    8.5101 C.ar    1  UNL1        0.1343
     21 C          15.7144   41.9139    7.8980 C.ar    1  UNL1        0.0342
     22 C          15.2459   42.9241    7.0561 C.ar    1  UNL1        0.0001
     23 N          17.7072   43.1715    8.2785 N.ar    1  UNL1       -0.2293
     24 C           8.9349   41.0695    8.5265 C.3     1  UNL1        0.0870
     25 C           8.3347   42.4506    8.3568 C.3     1  UNL1        0.0310
     26 C           7.0443   42.3462    7.5658 C.3     1  UNL1        0.0913
     27 C           5.5560   44.2721    8.1436 C.3     1  UNL1        0.1122
     28 N           5.9312   42.8780    8.3433 N.pl3   1  UNL1       -0.3058
     29 C           5.2677   42.0681    9.3323 C.ar    1  UNL1        0.0479
     30 C           5.9335   41.6898   10.5107 C.ar    1  UNL1        0.0145
     31 C           5.2914   40.9004   11.4686 C.ar    1  UNL1        0.0013
     32 C           3.9767   40.4788   11.2590 C.ar    1  UNL1        0.0001
     33 C           3.3035   40.8466   10.0917 C.ar    1  UNL1        0.0013
     34 C           3.9452   41.6364    9.1338 C.ar    1  UNL1        0.0145
@<TRIPOS>BOND
     1    17    18    1
     2    19    23   ar
     3    20    21   ar
     4    20    15    1
     5    22    18   ar
     6     9    14   ar
     7    10    13   ar
     8    11    12   ar
     9     1    12    1
    10     1     2    1
    11     2     3    1
    12     3     4    1
    13     4     7    1
    14     5     7    1
    15     5     1    1
    16    24     6    1
    17    24    25    1
    18    25    26    1
    19    26    28    1
    20    27    28    1
    21    30    31   ar
    22    32    33   ar
    23    34    29   ar
    24    15     9    1
    25     7     6   am
    26    28    29    1
    27    18    19   ar
    28    20    23   ar
    29    21    22   ar
    30     9    13   ar
    31    10    11   ar
    32    12    14   ar
    33     6     8    2
    34    29    30   ar
    35    31    32   ar
    36    33    34   ar
    37    15    16    1
@<TRIPOS>MOLECULE
MolPort-020-295-383 MCULE-9763602010 PubChem-110267464
 34 37 0 0 0
SMALL
GASTEIGER

@<TRIPOS>ATOM
      1 C          13.7207   38.8007   10.4102 C.3     1  UNL1        0.0603
      2 C          13.2835   37.3337   10.3701 C.3     1  UNL1        0.0094
      3 C          11.7662   37.2343   10.2298 C.3     1  UNL1        0.0219
      4 C          11.3114   37.9601    8.9678 C.3     1  UNL1        0.0934
      5 C          13.2396   39.5459    9.1640 C.3     1  UNL1        0.0992
      6 C          10.9094   40.4513    8.8811 C.2     1  UNL1        0.2257
      7 N          11.8051   39.3349    8.9933 N.am    1  UNL1       -0.2792
      8 O          11.3589   41.6284    8.9038 O.2     1  UNL1       -0.2749
      9 C          17.2108   40.0488   10.0121 C.ar    1  UNL1        0.2214
     10 C          17.3003   38.1872   11.4720 C.ar    1  UNL1        0.1031
     11 C          15.9200   38.0282   11.3723 C.ar    1  UNL1        0.0356
     12 C          15.2032   38.9194   10.5664 C.ar    1  UNL1        0.0647
     13 N          17.9184   39.1889   10.7945 N.ar    1  UNL1       -0.2120
     14 N          15.8633   39.9057    9.9041 N.ar    1  UNL1       -0.2179
     15 N          17.8608   41.1045    9.2941 N.pl3   1  UNL1       -0.2680
     16 H          18.8391   41.1666    9.3844 H       1  UNL1        0.1565
     17 C          15.3530   44.9898    5.9685 C.3     1  UNL1        0.0327
     18 C          16.0160   43.9811    6.8354 C.ar    1  UNL1       -0.0026
     19 C          15.3392   42.8188    7.2093 C.ar    1  UNL1        0.0960
     20 C          17.2254   42.0789    8.4573 C.ar    1  UNL1        0.1343
     21 C          17.9315   43.2312    8.1002 C.ar    1  UNL1        0.0342
     22 C          17.3213   44.1853    7.2839 C.ar    1  UNL1        0.0001
     23 N          15.9521   41.9006    8.0043 N.ar    1  UNL1       -0.2293
     24 C           9.4419   40.2434    8.7043 C.3     1  UNL1        0.0870
     25 C           9.1496   39.8431    7.2722 C.3     1  UNL1        0.0310
     26 C           8.4699   40.9944    6.5552 C.3     1  UNL1        0.0913
     27 C           6.2956   39.7956    6.2493 C.3     1  UNL1        0.1122
     28 N           7.0286   40.9426    6.7704 N.pl3   1  UNL1       -0.3058
     29 C           6.3390   42.0290    7.4171 C.ar    1  UNL1        0.0479
     30 C           6.3750   43.3241    6.8725 C.ar    1  UNL1        0.0145
     31 C           5.7095   44.3795    7.5021 C.ar    1  UNL1        0.0013
     32 C           5.0014   44.1527    8.6842 C.ar    1  UNL1        0.0001
     33 C           4.9583   42.8707    9.2371 C.ar    1  UNL1        0.0013
     34 C           5.6234   41.8151    8.6074 C.ar    1  UNL1        0.0145
@<TRIPOS>BOND
     1    17    18    1
     2    19    23   ar
     3    20    21   ar
     4    20    15    1
     5    22    18   ar
     6     9    14   ar
     7    10    13   ar
     8    11    12   ar
     9     1    12    1
    10     1     2    1
    11     2     3    1
    12     3     4    1
    13     4     7    1
    14     5     7    1
    15     5     1    1
    16    24     6    1
    17    24    25    1
    18    25    26    1
    19    26    28    1
    20    27    28    1
    21    30    31   ar
    22    32    33   ar
    23    34    29   ar
    24    15     9    1
    25     7     6   am
    26    28    29    1
    27    18    19   ar
    28    20    23   ar
    29    21    22   ar
    30     9    13   ar
    31    10    11   ar
    32    12    14   ar
    33     6     8    2
    34    29    30   ar
    35    31    32   ar
    36    33    34   ar
    37    15    16    1
@<TRIPOS>MOLECULE
MolPort-020-295-383 MCULE-9763602010 PubChem-110267464
 34 37 0 0 0
SMALL
GASTEIGER

@<TRIPOS>ATOM
      1 C           6.6747   41.3046   10.9416 C.3     1  UNL1        0.0603
      2 C           7.2989   41.7508   12.2667 C.3     1  UNL1        0.0094
      3 C           8.7336   41.2398   12.3778 C.3     1  UNL1        0.0219
      4 C           9.5603   41.7493   11.2017 C.3     1  UNL1        0.0934
      5 C           7.5155   41.7819    9.7563 C.3     1  UNL1        0.0992
      6 C           9.5916   40.6144    8.9464 C.2     1  UNL1        0.2257
      7 N           8.9049   41.3776    9.9500 N.am    1  UNL1       -0.2792
      8 O           9.0062   40.3072    7.8735 O.2     1  UNL1       -0.2749
      9 C           3.1162   42.0096   11.8001 C.ar    1  UNL1        0.2214
     10 C           3.4729   42.8108    9.6011 C.ar    1  UNL1        0.1031
     11 C           4.8017   42.3961    9.6532 C.ar    1  UNL1        0.0356
     12 C           5.2618   41.7797   10.8220 C.ar    1  UNL1        0.0647
     13 N           2.6577   42.6120   10.6690 N.ar    1  UNL1       -0.2120
     14 N           4.4103   41.5984   11.8656 N.ar    1  UNL1       -0.2179
     15 N           2.2576   41.7959   12.9269 N.pl3   1  UNL1       -0.2680
     16 H           2.4357   40.9986   13.4764 H       1  UNL1        0.1565
     17 C          -2.0718   45.1240   14.5465 C.3     1  UNL1        0.0327
     18 C          -0.9357   44.2627   14.1270 C.ar    1  UNL1       -0.0026
     19 C          -1.1691   43.0858   13.4133 C.ar    1  UNL1        0.0960
     20 C           1.1650   42.6297   13.3321 C.ar    1  UNL1        0.1343
     21 C           1.4333   43.8021   14.0444 C.ar    1  UNL1        0.0342
     22 C           0.3753   44.6216   14.4418 C.ar    1  UNL1        0.0001
     23 N          -0.1241   42.3017   13.0340 N.ar    1  UNL1       -0.2293
     24 C          11.0127   40.1992    9.1364 C.3     1  UNL1        0.0870
     25 C          11.9363   41.3271    8.7222 C.3     1  UNL1        0.0310
     26 C          13.0123   40.7853    7.8000 C.3     1  UNL1        0.0913
     27 C          13.0175   42.4896    5.9688 C.3     1  UNL1        0.1122
     28 N          13.6857   41.8804    7.1119 N.pl3   1  UNL1       -0.3058
     29 C          15.0055   42.3003    7.5069 C.ar    1  UNL1        0.0479
     30 C          15.7624   41.5292    8.4055 C.ar    1  UNL1        0.0145
     31 C          17.0414   41.9386    8.7923 C.ar    1  UNL1        0.0013
     32 C          17.5780   43.1243    8.2864 C.ar    1  UNL1        0.0001
     33 C          16.8363   43.9011    7.3933 C.ar    1  UNL1        0.0013
     34 C          15.5574   43.4916    7.0060 C.ar    1  UNL1        0.0145
@<TRIPOS>BOND
     1    17    18    1
     2    19    23   ar
     3    20    21   ar
     4    20    15    1
     5    22    18   ar
     6     9    14   ar
     7    10    13   ar
     8    11    12   ar
     9     1    12    1
    10     1     2    1
    11     2     3    1
    12     3     4    1
    13     4     7    1
    14     5     7    1
    15     5     1    1
    16    24     6    1
    17    24    25    1
    18    25    26    1
    19    26    28    1
    20    27    28    1
    21    30    31   ar
    22    32    33   ar
    23    34    29   ar
    24    15     9    1
    25     7     6   am
    26    28    29    1
    27    18    19   ar
    28    20    23   ar
    29    21    22   ar
    30     9    13   ar
    31    10    11   ar
    32    12    14   ar
    33     6     8    2
    34    29    30   ar
    35    31    32   ar
    36    33    34   ar
    37    15    16    1
@<TRIPOS>MOLECULE
MolPort-020-295-383 MCULE-9763602010 PubChem-110267464
 34 37 0 0 0
SMALL
GASTEIGER

@<TRIPOS>ATOM
      1 C          12.8795   39.2187   10.4774 C.3     1  UNL1        0.0603
      2 C          12.4786   38.1159    9.4936 C.3     1  UNL1        0.0094
      3 C          10.9605   38.0700    9.3356 C.3     1  UNL1        0.0219
      4 C          10.4458   39.4235    8.8567 C.3     1  UNL1        0.0934
      5 C          12.3386   40.5755   10.0234 C.3     1  UNL1        0.0992
      6 C           9.9782   41.3504   10.4199 C.2     1  UNL1        0.2257
      7 N          10.9050   40.4683    9.7688 N.am    1  UNL1       -0.2792
      8 O          10.3981   42.2456   11.2012 O.2     1  UNL1       -0.2749
      9 C          16.4547   40.1563    9.9915 C.ar    1  UNL1        0.2214
     10 C          16.3847   38.5670   11.7448 C.ar    1  UNL1        0.1031
     11 C          14.9992   38.4817   11.6275 C.ar    1  UNL1        0.0356
     12 C          14.3629   39.2674   10.6604 C.ar    1  UNL1        0.0647
     13 N          17.0846   39.3979   10.9299 N.ar    1  UNL1       -0.2120
     14 N          15.1032   40.0832    9.8644 N.ar    1  UNL1       -0.2179
     15 N          17.1909   41.0315    9.1286 N.pl3   1  UNL1       -0.2680
     16 H          18.1679   40.9125    9.1037 H       1  UNL1        0.1565
     17 C          14.9974   45.1207    5.8254 C.3     1  UNL1        0.0327
     18 C          15.5609   44.0489    6.6872 C.ar    1  UNL1       -0.0026
     19 C          16.8322   44.1894    7.2466 C.ar    1  UNL1        0.0960
     20 C          16.6436   42.0632    8.2983 C.ar    1  UNL1        0.1343
     21 C          15.3673   41.8917    7.7548 C.ar    1  UNL1        0.0342
     22 C          14.8251   42.8921    6.9460 C.ar    1  UNL1        0.0001
     23 N          17.3419   43.2035    8.0332 N.ar    1  UNL1       -0.2293
     24 C           8.5113   41.2483   10.1629 C.3     1  UNL1        0.0870
     25 C           8.0913   42.3056    9.1618 C.3     1  UNL1        0.0310
     26 C           7.1619   41.6868    8.1345 C.3     1  UNL1        0.0913
     27 C           7.0041   43.0416    6.0375 C.3     1  UNL1        0.1122
     28 N           7.6421   41.9663    6.7864 N.pl3   1  UNL1       -0.3058
     29 C           8.6697   41.1555    6.1856 C.ar    1  UNL1        0.0479
     30 C           9.9641   41.6680    5.9934 C.ar    1  UNL1        0.0145
     31 C          10.9603   40.8830    5.4066 C.ar    1  UNL1        0.0013
     32 C          10.6737   39.5770    5.0037 C.ar    1  UNL1        0.0001
     33 C           9.3911   39.0553    5.1876 C.ar    1  UNL1        0.0013
     34 C           8.3948   39.8400    5.7749 C.ar    1  UNL1        0.0145
@<TRIPOS>BOND
     1    17    18    1
     2    19    23   ar
     3    20    21   ar
     4    20    15    1
     5    22    18   ar
     6     9    14   ar
     7    10    13   ar
     8    11    12   ar
     9     1    12    1
    10     1     2    1
    11     2     3    1
    12     3     4    1
    13     4     7    1
    14     5     7    1
    15     5     1    1
    16    24     6    1
    17    24    25    1
    18    25    26    1
    19    26    28    1
    20    27    28    1
    21    30    31   ar
    22    32    33   ar
    23    34    29   ar
    24    15     9    1
    25     7     6   am
    26    28    29    1
    27    18    19   ar
    28    20    23   ar
    29    21    22   ar
    30     9    13   ar
    31    10    11   ar
    32    12    14   ar
    33     6     8    2
    34    29    30   ar
    35    31    32   ar
    36    33    34   ar
    37    15    16    1
@<TRIPOS>MOLECULE
MolPort-020-295-383 MCULE-9763602010 PubChem-110267464
 34 37 0 0 0
SMALL
GASTEIGER

@<TRIPOS>ATOM
      1 C          13.0876   38.8482   10.5445 C.3     1  UNL1        0.0603
      2 C          12.6093   38.3413    9.1810 C.3     1  UNL1        0.0094
      3 C          11.0851   38.3870    9.1011 C.3     1  UNL1        0.0219
      4 C          10.5937   39.8107    9.3422 C.3     1  UNL1        0.0934
      5 C          12.5712   40.2631   10.8105 C.3     1  UNL1        0.0992
      6 C          10.2561   40.7787   11.6496 C.2     1  UNL1        0.2257
      7 N          11.1252   40.2996   10.6121 N.am    1  UNL1       -0.2792
      8 O          10.7380   41.1975   12.7361 O.2     1  UNL1       -0.2749
      9 C          16.6738   39.8170   10.2319 C.ar    1  UNL1        0.2214
     10 C          16.6150   37.7011   11.2923 C.ar    1  UNL1        0.1031
     11 C          15.2233   37.6957   11.2297 C.ar    1  UNL1        0.0356
     12 C          14.5784   38.7934   10.6496 C.ar    1  UNL1        0.0647
     13 N          17.3123   38.7553   10.7956 N.ar    1  UNL1       -0.2120
     14 N          15.3162   39.8257   10.1627 N.ar    1  UNL1       -0.2179
     15 N          17.4070   40.9290    9.7044 N.pl3   1  UNL1       -0.2680
     16 H          18.3417   41.0247    9.9986 H       1  UNL1        0.1565
     17 C          15.4236   44.8380    6.0671 C.3     1  UNL1        0.0327
     18 C          15.9325   43.8130    7.0154 C.ar    1  UNL1       -0.0026
     19 C          17.1411   44.0106    7.6855 C.ar    1  UNL1        0.0960
     20 C          16.9125   41.9155    8.7904 C.ar    1  UNL1        0.1343
     21 C          15.6981   41.6873    8.1367 C.ar    1  UNL1        0.0342
     22 C          15.2074   42.6434    7.2457 C.ar    1  UNL1        0.0001
     23 N          17.6012   43.0672    8.5509 N.ar    1  UNL1       -0.2293
     24 C           8.7770   40.8210   11.4533 C.3     1  UNL1        0.0870
     25 C           8.3232   42.2568   11.2828 C.3     1  UNL1        0.0310
     26 C           9.5229   43.1315   10.9706 C.3     1  UNL1        0.0913
     27 C          11.0027   43.3993    8.9714 C.3     1  UNL1        0.1122
     28 N           9.6594   43.3053    9.5293 N.pl3   1  UNL1       -0.3058
     29 C           8.4983   43.4515    8.6898 C.ar    1  UNL1        0.0479
     30 C           8.2552   42.5475    7.6416 C.ar    1  UNL1        0.0145
     31 C           7.1310   42.6916    6.8241 C.ar    1  UNL1        0.0013
     32 C           6.2374   43.7420    7.0441 C.ar    1  UNL1        0.0001
     33 C           6.4675   44.6485    8.0816 C.ar    1  UNL1        0.0013
     34 C           7.5915   44.5042    8.8995 C.ar    1  UNL1        0.0145
@<TRIPOS>BOND
     1    17    18    1
     2    19    23   ar
     3    20    21   ar
     4    20    15    1
     5    22    18   ar
     6     9    14   ar
     7    10    13   ar
     8    11    12   ar
     9     1    12    1
    10     1     2    1
    11     2     3    1
    12     3     4    1
    13     4     7    1
    14     5     7    1
    15     5     1    1
    16    24     6    1
    17    24    25    1
    18    25    26    1
    19    26    28    1
    20    27    28    1
    21    30    31   ar
    22    32    33   ar
    23    34    29   ar
    24    15     9    1
    25     7     6   am
    26    28    29    1
    27    18    19   ar
    28    20    23   ar
    29    21    22   ar
    30     9    13   ar
    31    10    11   ar
    32    12    14   ar
    33     6     8    2
    34    29    30   ar
    35    31    32   ar
    36    33    34   ar
    37    15    16    1
@<TRIPOS>MOLECULE
MolPort-020-295-383 MCULE-9763602010 PubChem-110267464
 34 37 0 0 0
SMALL
GASTEIGER

@<TRIPOS>ATOM
      1 C          10.1366   40.6445    8.9462 C.3     1  UNL1        0.0603
      2 C          11.3316   41.5981    8.8604 C.3     1  UNL1        0.0094
      3 C          12.5013   41.0606    9.6818 C.3     1  UNL1        0.0219
      4 C          12.8914   39.6721    9.1856 C.3     1  UNL1        0.0934
      5 C          10.5270   39.2401    8.4826 C.3     1  UNL1        0.0992
      6 C          11.7191   37.5637    9.9310 C.2     1  UNL1        0.2257
      7 N          11.7179   38.8020    9.2045 N.am    1  UNL1       -0.2792
      8 O          10.6955   36.8286    9.9311 O.2     1  UNL1       -0.2749
      9 C           6.6350   41.1712    7.7806 C.ar    1  UNL1        0.2214
     10 C           8.0302   42.5162    6.4208 C.ar    1  UNL1        0.1031
     11 C           9.1533   42.0751    7.1171 C.ar    1  UNL1        0.0356
     12 C           8.9732   41.1632    8.1627 C.ar    1  UNL1        0.0647
     13 N           6.7977   42.0596    6.7625 N.ar    1  UNL1       -0.2120
     14 N           7.7215   40.7308    8.4687 N.ar    1  UNL1       -0.2179
     15 N           5.3362   40.6857    8.1411 N.pl3   1  UNL1       -0.2680
     16 H           4.9544   39.9759    7.5757 H       1  UNL1        0.1565
     17 C           2.1743   42.4461   12.5397 C.3     1  UNL1        0.0327
     18 C           3.0038   41.9801   11.3980 C.ar    1  UNL1       -0.0026
     19 C           2.9756   42.6632   10.1809 C.ar    1  UNL1        0.0960
     20 C           4.5388   41.1327    9.2446 C.ar    1  UNL1        0.1343
     21 C           4.5912   40.4269   10.4501 C.ar    1  UNL1        0.0342
     22 C           3.8193   40.8558   11.5312 C.ar    1  UNL1        0.0001
     23 N           3.7366   42.2297    9.1398 N.ar    1  UNL1       -0.2293
     24 C          12.9336   37.1082   10.6696 C.3     1  UNL1        0.0870
     25 C          13.5663   35.9380    9.9438 C.3     1  UNL1        0.0310
     26 C          14.3814   36.4520    8.7721 C.3     1  UNL1        0.0913
     27 C          16.2868   34.8447    8.5616 C.3     1  UNL1        0.1122
     28 N          15.7949   36.1542    8.9711 N.pl3   1  UNL1       -0.3058
     29 C          16.6650   37.1011    9.6196 C.ar    1  UNL1        0.0479
     30 C          17.9737   36.7386    9.9814 C.ar    1  UNL1        0.0145
     31 C          18.8168   37.6558   10.6145 C.ar    1  UNL1        0.0013
     32 C          18.3609   38.9457   10.8947 C.ar    1  UNL1        0.0001
     33 C          17.0620   39.3190   10.5417 C.ar    1  UNL1        0.0013
     34 C          16.2189   38.4020    9.9081 C.ar    1  UNL1        0.0145
@<TRIPOS>BOND
     1    17    18    1
     2    19    23   ar
     3    20    21   ar
     4    20    15    1
     5    22    18   ar
     6     9    14   ar
     7    10    13   ar
     8    11    12   ar
     9     1    12    1
    10     1     2    1
    11     2     3    1
    12     3     4    1
    13     4     7    1
    14     5     7    1
    15     5     1    1
    16    24     6    1
    17    24    25    1
    18    25    26    1
    19    26    28    1
    20    27    28    1
    21    30    31   ar
    22    32    33   ar
    23    34    29   ar
    24    15     9    1
    25     7     6   am
    26    28    29    1
    27    18    19   ar
    28    20    23   ar
    29    21    22   ar
    30     9    13   ar
    31    10    11   ar
    32    12    14   ar
    33     6     8    2
    34    29    30   ar
    35    31    32   ar
    36    33    34   ar
    37    15    16    1
@<TRIPOS>MOLECULE
MolPort-020-295-383 MCULE-9763602010 PubChem-110267464
 34 37 0 0 0
SMALL
GASTEIGER

@<TRIPOS>ATOM
      1 C           6.5832   41.5656   10.5180 C.3     1  UNL1        0.0603
      2 C           7.1173   41.5482   11.9530 C.3     1  UNL1        0.0094
      3 C           8.6196   41.2748   11.9584 C.3     1  UNL1        0.0219
      4 C           9.3443   42.3334   11.1334 C.3     1  UNL1        0.0934
      5 C           7.3275   42.6009    9.6732 C.3     1  UNL1        0.0992
      6 C           9.5782   42.2006    8.6228 C.2     1  UNL1        0.2257
      7 N           8.7663   42.3841    9.7925 N.am    1  UNL1       -0.2792
      8 O           9.0575   42.2506    7.4763 O.2     1  UNL1       -0.2749
      9 C           3.0600   41.9469   11.6749 C.ar    1  UNL1        0.2214
     10 C           3.0697   42.3281    9.3384 C.ar    1  UNL1        0.1031
     11 C           4.4456   42.1140    9.2977 C.ar    1  UNL1        0.0356
     12 C           5.1086   41.8134   10.4925 C.ar    1  UNL1        0.0647
     13 N           2.4044   42.2417   10.5191 N.ar    1  UNL1       -0.2120
     14 N           4.4024   41.7343   11.6510 N.ar    1  UNL1       -0.2179
     15 N           2.3600   41.8522   12.9214 N.pl3   1  UNL1       -0.2680
     16 H           2.7398   41.2479   13.5995 H       1  UNL1        0.1565
     17 C          -2.3943   44.6474   14.3452 C.3     1  UNL1        0.0327
     18 C          -1.1483   43.9258   13.9770 C.ar    1  UNL1       -0.0026
     19 C          -1.2121   42.7268   13.2648 C.ar    1  UNL1        0.0960
     20 C           1.1610   42.5515   13.2772 C.ar    1  UNL1        0.1343
     21 C           1.2600   43.7503   13.9893 C.ar    1  UNL1        0.0342
     22 C           0.0974   44.4396   14.3388 C.ar    1  UNL1        0.0001
     23 N          -0.0673   42.0713   12.9326 N.ar    1  UNL1       -0.2293
     24 C          11.0502   41.9806    8.7368 C.3     1  UNL1        0.0870
     25 C          11.6208   41.6164    7.3810 C.3     1  UNL1        0.0310
     26 C          12.5722   40.4444    7.5323 C.3     1  UNL1        0.0913
     27 C          14.5664   41.9391    7.7491 C.3     1  UNL1        0.1122
     28 N          13.7571   40.8492    8.2796 N.pl3   1  UNL1       -0.3058
     29 C          14.1555   40.1443    9.4707 C.ar    1  UNL1        0.0479
     30 C          15.4538   39.6199    9.5908 C.ar    1  UNL1        0.0145
     31 C          15.8394   38.9322   10.7446 C.ar    1  UNL1        0.0013
     32 C          14.9312   38.7594   11.7912 C.ar    1  UNL1        0.0001
     33 C          13.6371   39.2745   11.6846 C.ar    1  UNL1        0.0013
     34 C          13.2515   39.9627   10.5310 C.ar    1  UNL1        0.0145
@<TRIPOS>BOND
     1    17    18    1
     2    19    23   ar
     3    20    21   ar
     4    20    15    1
     5    22    18   ar
     6     9    14   ar
     7    10    13   ar
     8    11    12   ar
     9     1    12    1
    10     1     2    1
    11     2     3    1
    12     3     4    1
    13     4     7    1
    14     5     7    1
    15     5     1    1
    16    24     6    1
    17    24    25    1
    18    25    26    1
    19    26    28    1
    20    27    28    1
    21    30    31   ar
    22    32    33   ar
    23    34    29   ar
    24    15     9    1
    25     7     6   am
    26    28    29    1
    27    18    19   ar
    28    20    23   ar
    29    21    22   ar
    30     9    13   ar
    31    10    11   ar
    32    12    14   ar
    33     6     8    2
    34    29    30   ar
    35    31    32   ar
    36    33    34   ar
    37    15    16    1
@<TRIPOS>MOLECULE
MolPort-020-295-383 MCULE-9763602010 PubChem-110267464
 34 37 0 0 0
SMALL
GASTEIGER

@<TRIPOS>ATOM
      1 C          12.3007   39.2504    9.4967 C.3     1  UNL1        0.0603
      2 C          11.5515   37.9427    9.7676 C.3     1  UNL1        0.0094
      3 C          10.1440   38.0040    9.1787 C.3     1  UNL1        0.0219
      4 C          10.2183   38.2742    7.6794 C.3     1  UNL1        0.0934
      5 C          12.3510   39.5478    7.9972 C.3     1  UNL1        0.0992
      6 C          10.4596   40.5924    6.7084 C.2     1  UNL1        0.2257
      7 N          11.0022   39.4840    7.4421 N.am    1  UNL1       -0.2792
      8 O          11.1556   41.6250    6.5146 O.2     1  UNL1       -0.2749
      9 C          15.9154   39.9894   10.0303 C.ar    1  UNL1        0.2214
     10 C          15.2794   38.4070   11.6723 C.ar    1  UNL1        0.1031
     11 C          13.9778   38.3981   11.1760 C.ar    1  UNL1        0.0356
     12 C          13.6762   39.2173   10.0827 C.ar    1  UNL1        0.0647
     13 N          16.2203   39.1978   11.0947 N.ar    1  UNL1       -0.2120
     14 N          14.6498   39.9908    9.5342 N.ar    1  UNL1       -0.2179
     15 N          16.9068   40.8224    9.4172 N.pl3   1  UNL1       -0.2680
     16 H          17.8476   40.6198    9.6248 H       1  UNL1        0.1565
     17 C          15.9156   45.1837    5.8902 C.3     1  UNL1        0.0327
     18 C          16.1649   44.0424    6.8089 C.ar    1  UNL1       -0.0026
     19 C          17.3407   43.9851    7.5592 C.ar    1  UNL1        0.0960
     20 C          16.6622   41.9218    8.5314 C.ar    1  UNL1        0.1343
     21 C          15.4741   41.9495    7.7955 C.ar    1  UNL1        0.0342
     22 C          15.2263   43.0173    6.9311 C.ar    1  UNL1        0.0001
     23 N          17.5625   42.9364    8.3969 N.ar    1  UNL1       -0.2293
     24 C           9.0823   40.5338    6.1361 C.3     1  UNL1        0.0870
     25 C           8.0650   40.8471    7.2148 C.3     1  UNL1        0.0310
     26 C           8.2566   42.2753    7.6894 C.3     1  UNL1        0.0913
     27 C           6.3908   43.1614    9.1008 C.3     1  UNL1        0.1122
     28 N           7.6612   42.4529    9.0086 N.pl3   1  UNL1       -0.3058
     29 C           8.3448   42.0035   10.1939 C.ar    1  UNL1        0.0479
     30 C           7.6265   41.7089   11.3654 C.ar    1  UNL1        0.0145
     31 C           8.2899   41.2769   12.5171 C.ar    1  UNL1        0.0013
     32 C           9.6791   41.1358   12.5115 C.ar    1  UNL1        0.0001
     33 C          10.4057   41.4262   11.3544 C.ar    1  UNL1        0.0013
     34 C           9.7424   41.8578   10.2024 C.ar    1  UNL1        0.0145
@<TRIPOS>BOND
     1    17    18    1
     2    19    23   ar
     3    20    21   ar
     4    20    15    1
     5    22    18   ar
     6     9    14   ar
     7    10    13   ar
     8    11    12   ar
     9     1    12    1
    10     1     2    1
    11     2     3    1
    12     3     4    1
    13     4     7    1
    14     5     7    1
    15     5     1    1
    16    24     6    1
    17    24    25    1
    18    25    26    1
    19    26    28    1
    20    27    28    1
    21    30    31   ar
    22    32    33   ar
    23    34    29   ar
    24    15     9    1
    25     7     6   am
    26    28    29    1
    27    18    19   ar
    28    20    23   ar
    29    21    22   ar
    30     9    13   ar
    31    10    11   ar
    32    12    14   ar
    33     6     8    2
    34    29    30   ar
    35    31    32   ar
    36    33    34   ar
    37    15    16    1
@<TRIPOS>MOLECULE
MolPort-020-295-383 MCULE-9763602010 PubChem-110267464
 34 37 0 0 0
SMALL
GASTEIGER

@<TRIPOS>ATOM
      1 C          14.1139   38.6430   10.1700 C.3     1  UNL1        0.0603
      2 C          13.6822   37.3635   10.8920 C.3     1  UNL1        0.0094
      3 C          12.1664   37.1953   10.8159 C.3     1  UNL1        0.0219
      4 C          11.7189   37.1609    9.3582 C.3     1  UNL1        0.0934
      5 C          13.6400   38.6332    8.7157 C.3     1  UNL1        0.0992
      6 C          11.3091   39.2457    7.9940 C.2     1  UNL1        0.2257
      7 N          12.2077   38.3543    8.6717 N.am    1  UNL1       -0.2792
      8 O          11.7542   40.2682    7.4070 O.2     1  UNL1       -0.2749
      9 C          17.4983   40.1306    9.6901 C.ar    1  UNL1        0.2214
     10 C          17.7824   38.1500   10.9554 C.ar    1  UNL1        0.1031
     11 C          16.4092   37.9181   10.9221 C.ar    1  UNL1        0.0356
     12 C          15.5948   38.8357   10.2495 C.ar    1  UNL1        0.0647
     13 N          18.3004   39.2458   10.3428 N.ar    1  UNL1       -0.2120
     14 N          16.1564   39.9173    9.6480 N.ar    1  UNL1       -0.2179
     15 N          18.0425   41.2858    9.0404 N.pl3   1  UNL1       -0.2680
     16 H          19.0070   41.4468    9.1547 H       1  UNL1        0.1565
     17 C          15.1508   45.0253    5.8626 C.3     1  UNL1        0.0327
     18 C          15.8967   44.0447    6.6937 C.ar    1  UNL1       -0.0026
     19 C          17.2449   44.2528    6.9900 C.ar    1  UNL1        0.0960
     20 C          17.3195   42.2296    8.2405 C.ar    1  UNL1        0.1343
     21 C          15.9702   41.9920    7.9634 C.ar    1  UNL1        0.0342
     22 C          15.2571   42.9067    7.1864 C.ar    1  UNL1        0.0001
     23 N          17.9215   43.3500    7.7502 N.ar    1  UNL1       -0.2293
     24 C           9.8437   38.9661    7.9430 C.3     1  UNL1        0.0870
     25 C           9.1381   40.0664    7.1762 C.3     1  UNL1        0.0310
     26 C           9.6636   41.4151    7.6308 C.3     1  UNL1        0.0913
     27 C           7.8099   43.0657    7.9434 C.3     1  UNL1        0.1122
     28 N           8.6991   42.0612    8.5132 N.pl3   1  UNL1       -0.3058
     29 C           8.6746   41.7663    9.9227 C.ar    1  UNL1        0.0479
     30 C           7.4570   41.7236   10.6233 C.ar    1  UNL1        0.0145
     31 C           7.4332   41.4417   11.9919 C.ar    1  UNL1        0.0013
     32 C           8.6263   41.2007   12.6763 C.ar    1  UNL1        0.0001
     33 C           9.8437   41.2411   11.9926 C.ar    1  UNL1        0.0013
     34 C           9.8677   41.5225   10.6238 C.ar    1  UNL1        0.0145
@<TRIPOS>BOND
     1    17    18    1
     2    19    23   ar
     3    20    21   ar
     4    20    15    1
     5    22    18   ar
     6     9    14   ar
     7    10    13   ar
     8    11    12   ar
     9     1    12    1
    10     1     2    1
    11     2     3    1
    12     3     4    1
    13     4     7    1
    14     5     7    1
    15     5     1    1
    16    24     6    1
    17    24    25    1
    18    25    26    1
    19    26    28    1
    20    27    28    1
    21    30    31   ar
    22    32    33   ar
    23    34    29   ar
    24    15     9    1
    25     7     6   am
    26    28    29    1
    27    18    19   ar
    28    20    23   ar
    29    21    22   ar
    30     9    13   ar
    31    10    11   ar
    32    12    14   ar
    33     6     8    2
    34    29    30   ar
    35    31    32   ar
    36    33    34   ar
    37    15    16    1
