@<TRIPOS>MOLECULE
MolPort-020-298-668 MCULE-1816645541 PubChem-110269813
 24 26 0 0 0
SMALL
GASTEIGER

@<TRIPOS>ATOM
      1 C          12.0919   41.5789    6.8590 C.ar    1  UNL1        0.1332
      2 C          13.0338   40.7640    7.5022 C.ar    1  UNL1        0.0344
      3 C          12.6035   39.6515    8.2253 C.ar    1  UNL1        0.0041
      4 C          11.2423   39.3591    8.3027 C.ar    1  UNL1        0.0149
      5 C          10.3236   40.1915    7.6494 C.ar    1  UNL1        0.0614
      6 N          10.7694   41.2708    6.9505 N.ar    1  UNL1       -0.2348
      7 C           8.8558   39.9126    7.7059 C.3     1  UNL1        0.0563
      8 C           8.2698   39.7663    6.2980 C.3     1  UNL1        0.0087
      9 C           6.7415   39.7141    6.3391 C.3     1  UNL1        0.0178
     10 C           6.1379   40.7742    7.2744 C.3     1  UNL1        0.0722
     11 C           8.1235   40.9693    8.5507 C.3     1  UNL1        0.0781
     12 N           7.1494   41.7165    7.7528 N.3     1  UNL1       -0.2702
     13 C           6.4738   42.6352    8.6529 C.3     1  UNL1        0.1042
     14 C           6.3717   44.0048    8.0092 C.3     1  UNL1        0.1544
     15 O           6.4095   44.9863    8.9980 O.3     1  UNL1       -0.3805
     16 H           5.6663   44.8592    9.6082 H       1  UNL1        0.2105
     17 N          12.4835   42.7334    6.1044 N.pl3   1  UNL1       -0.2768
     18 H          11.8081   43.1149    5.4982 H       1  UNL1        0.1555
     19 C          17.4325   44.3394    6.8450 C.3     1  UNL1        0.0614
     20 C          16.0088   44.1138    6.4837 C.ar    1  UNL1        0.1127
     21 C          13.7568   43.3886    6.1420 C.ar    1  UNL1        0.1868
     22 N          15.2908   44.9607    5.7144 N.ar    1  UNL1       -0.1440
     23 N          14.0357   44.5580    5.5240 N.ar    1  UNL1       -0.1256
     24 S          15.0909   42.7901    6.9749 S.2     1  UNL1       -0.0347
@<TRIPOS>BOND
     1    19    20    1
     2    20    24   ar
     3    21    24   ar
     4    21    17    1
     5     1     6   ar
     6     2     3   ar
     7     4     5   ar
     8     7     5    1
     9     7     8    1
    10     8     9    1
    11     9    10    1
    12    10    12    1
    13    11    12    1
    14    11     7    1
    15    13    12    1
    16    13    14    1
    17    14    15    1
    18    22    23   ar
    19    17     1    1
    20    20    22   ar
    21    21    23   ar
    22     1     2   ar
    23     3     4   ar
    24     5     6   ar
    25    17    18    1
    26    15    16    1
@<TRIPOS>MOLECULE
MolPort-020-298-668 MCULE-1816645541 PubChem-110269813
 24 26 0 0 0
SMALL
GASTEIGER

@<TRIPOS>ATOM
      1 C          12.4556   42.0581    7.9926 C.ar    1  UNL1        0.1332
      2 C          13.3001   40.9939    8.3377 C.ar    1  UNL1        0.0344
      3 C          13.0662   40.2817    9.5140 C.ar    1  UNL1        0.0041
      4 C          11.9961   40.6331   10.3360 C.ar    1  UNL1        0.0149
      5 C          11.1683   41.7013    9.9655 C.ar    1  UNL1        0.0614
      6 N          11.4182   42.3801    8.8127 N.ar    1  UNL1       -0.2348
      7 C          10.0095   42.1094   10.8175 C.3     1  UNL1        0.0563
      8 C           9.7109   41.0500   11.8830 C.3     1  UNL1        0.0087
      9 C           8.3936   41.3464   12.6020 C.3     1  UNL1        0.0178
     10 C           7.2680   41.7460   11.6345 C.3     1  UNL1        0.0722
     11 C           8.7821   42.4522    9.9557 C.3     1  UNL1        0.0781
     12 N           7.6588   41.5564   10.2376 N.3     1  UNL1       -0.2702
     13 C           6.5406   42.0038    9.4252 C.3     1  UNL1        0.1042
     14 C           6.8311   43.3828    8.8643 C.3     1  UNL1        0.1544
     15 O           5.7954   44.2505    9.2063 O.3     1  UNL1       -0.3805
     16 H           4.9615   43.9200    8.8371 H       1  UNL1        0.2105
     17 N          12.6543   42.8210    6.7950 N.pl3   1  UNL1       -0.2768
     18 H          11.8660   42.9553    6.2208 H       1  UNL1        0.1555
     19 C          17.5989   44.3170    5.8291 C.3     1  UNL1        0.0614
     20 C          16.1338   44.0841    5.9145 C.ar    1  UNL1        0.1127
     21 C          13.8824   43.4077    6.3484 C.ar    1  UNL1        0.1868
     22 N          15.2252   44.7723    5.1896 N.ar    1  UNL1       -0.1440
     23 N          13.9704   44.3967    5.4311 N.ar    1  UNL1       -0.1256
     24 S          15.3982   42.9467    6.9152 S.2     1  UNL1       -0.0347
@<TRIPOS>BOND
     1    19    20    1
     2    20    24   ar
     3    21    24   ar
     4    21    17    1
     5     1     6   ar
     6     2     3   ar
     7     4     5   ar
     8     7     5    1
     9     7     8    1
    10     8     9    1
    11     9    10    1
    12    10    12    1
    13    11    12    1
    14    11     7    1
    15    13    12    1
    16    13    14    1
    17    14    15    1
    18    22    23   ar
    19    17     1    1
    20    20    22   ar
    21    21    23   ar
    22     1     2   ar
    23     3     4   ar
    24     5     6   ar
    25    17    18    1
    26    15    16    1
@<TRIPOS>MOLECULE
MolPort-020-298-668 MCULE-1816645541 PubChem-110269813
 24 26 0 0 0
SMALL
GASTEIGER

@<TRIPOS>ATOM
      1 C          11.3729   41.6275    7.3290 C.ar    1  UNL1        0.1332
      2 C          11.8082   40.9839    8.4957 C.ar    1  UNL1        0.0344
      3 C          10.9006   40.7354    9.5254 C.ar    1  UNL1        0.0041
      4 C           9.5699   41.1282    9.3865 C.ar    1  UNL1        0.0149
      5 C           9.1633   41.7695    8.2088 C.ar    1  UNL1        0.0614
      6 N          10.0685   42.0003    7.2192 N.ar    1  UNL1       -0.2348
      7 C           7.7458   42.2054    8.0189 C.3     1  UNL1        0.0563
      8 C           7.5818   43.6952    8.3361 C.3     1  UNL1        0.0087
      9 C           6.1051   44.0928    8.3705 C.3     1  UNL1        0.0178
     10 C           5.2379   43.0831    9.1395 C.3     1  UNL1        0.0722
     11 C           6.7805   41.3146    8.8198 C.3     1  UNL1        0.0781
     12 N           6.0515   42.0830    9.8307 N.3     1  UNL1       -0.2702
     13 C           5.1286   41.1681   10.4801 C.3     1  UNL1        0.1042
     14 C           3.7148   41.4363   10.0003 C.3     1  UNL1        0.1544
     15 O           3.5025   40.7774    8.7907 O.3     1  UNL1       -0.3805
     16 H           4.1352   41.1012    8.1307 H       1  UNL1        0.2105
     17 N          12.2666   41.9060    6.2430 N.pl3   1  UNL1       -0.2768
     18 H          12.0559   41.4850    5.3783 H       1  UNL1        0.1555
     19 C          16.9112   44.2251    7.0610 C.3     1  UNL1        0.0614
     20 C          15.5487   43.7841    6.6643 C.ar    1  UNL1        0.1127
     21 C          13.4346   42.7341    6.2871 C.ar    1  UNL1        0.1868
     22 N          14.7539   44.4812    5.8236 N.ar    1  UNL1       -0.1440
     23 N          13.5754   43.8974    5.6133 N.ar    1  UNL1       -0.1256
     24 S          14.8022   42.3721    7.1982 S.2     1  UNL1       -0.0347
@<TRIPOS>BOND
     1    19    20    1
     2    20    24   ar
     3    21    24   ar
     4    21    17    1
     5     1     6   ar
     6     2     3   ar
     7     4     5   ar
     8     7     5    1
     9     7     8    1
    10     8     9    1
    11     9    10    1
    12    10    12    1
    13    11    12    1
    14    11     7    1
    15    13    12    1
    16    13    14    1
    17    14    15    1
    18    22    23   ar
    19    17     1    1
    20    20    22   ar
    21    21    23   ar
    22     1     2   ar
    23     3     4   ar
    24     5     6   ar
    25    17    18    1
    26    15    16    1
@<TRIPOS>MOLECULE
MolPort-020-298-668 MCULE-1816645541 PubChem-110269813
 24 26 0 0 0
SMALL
GASTEIGER

@<TRIPOS>ATOM
      1 C          11.5221   41.9294    6.7575 C.ar    1  UNL1        0.1332
      2 C          11.8315   40.9418    5.8121 C.ar    1  UNL1        0.0344
      3 C          10.8134   40.1439    5.2903 C.ar    1  UNL1        0.0041
      4 C           9.4981   40.3344    5.7122 C.ar    1  UNL1        0.0149
      5 C           9.2184   41.3294    6.6583 C.ar    1  UNL1        0.0614
      6 N          10.2299   42.0944    7.1520 N.ar    1  UNL1       -0.2348
      7 C           7.8218   41.5675    7.1362 C.3     1  UNL1        0.0563
      8 C           7.3859   43.0104    6.8625 C.3     1  UNL1        0.0087
      9 C           6.0571   43.3256    7.5517 C.3     1  UNL1        0.0178
     10 C           6.0035   42.8089    8.9984 C.3     1  UNL1        0.0722
     11 C           7.6660   41.1665    8.6132 C.3     1  UNL1        0.0781
     12 N           7.3048   42.3141    9.4477 N.3     1  UNL1       -0.2702
     13 C           7.1201   41.8179   10.8006 C.3     1  UNL1        0.1042
     14 C           8.4653   41.6881   11.4894 C.3     1  UNL1        0.1544
     15 O           8.3057   41.8848   12.8599 O.3     1  UNL1       -0.3805
     16 H           7.9445   42.7708   13.0194 H       1  UNL1        0.2105
     17 N          12.5324   42.7744    7.3239 N.pl3   1  UNL1       -0.2768
     18 H          12.4118   43.0376    8.2649 H       1  UNL1        0.1555
     19 C          17.3278   44.0136    5.5664 C.3     1  UNL1        0.0614
     20 C          15.8835   43.8350    5.8670 C.ar    1  UNL1        0.1127
     21 C          13.6994   43.2750    6.6609 C.ar    1  UNL1        0.1868
     22 N          14.8978   44.4726    5.1989 N.ar    1  UNL1       -0.1440
     23 N          13.6804   44.1619    5.6409 N.ar    1  UNL1       -0.1256
     24 S          15.2695   42.8287    7.0697 S.2     1  UNL1       -0.0347
@<TRIPOS>BOND
     1    19    20    1
     2    20    24   ar
     3    21    24   ar
     4    21    17    1
     5     1     6   ar
     6     2     3   ar
     7     4     5   ar
     8     7     5    1
     9     7     8    1
    10     8     9    1
    11     9    10    1
    12    10    12    1
    13    11    12    1
    14    11     7    1
    15    13    12    1
    16    13    14    1
    17    14    15    1
    18    22    23   ar
    19    17     1    1
    20    20    22   ar
    21    21    23   ar
    22     1     2   ar
    23     3     4   ar
    24     5     6   ar
    25    17    18    1
    26    15    16    1
@<TRIPOS>MOLECULE
MolPort-020-298-668 MCULE-1816645541 PubChem-110269813
 24 26 0 0 0
SMALL
GASTEIGER

@<TRIPOS>ATOM
      1 C          11.4001   41.5219    7.1158 C.ar    1  UNL1        0.1332
      2 C          10.8484   41.3406    5.8400 C.ar    1  UNL1        0.0344
      3 C           9.4737   41.4888    5.6559 C.ar    1  UNL1        0.0041
      4 C           8.6603   41.8158    6.7403 C.ar    1  UNL1        0.0149
      5 C           9.2396   41.9912    8.0041 C.ar    1  UNL1        0.0614
      6 N          10.5835   41.8407    8.1571 N.ar    1  UNL1       -0.2348
      7 C           8.4037   42.3438    9.1925 C.3     1  UNL1        0.0563
      8 C           8.7564   41.4609   10.3938 C.3     1  UNL1        0.0087
      9 C           7.7547   41.6541   11.5337 C.3     1  UNL1        0.0178
     10 C           6.2976   41.6727   11.0444 C.3     1  UNL1        0.0722
     11 C           6.9054   42.3092    8.8455 C.3     1  UNL1        0.0781
     12 N           6.1930   41.3014    9.6333 N.3     1  UNL1       -0.2702
     13 C           4.7875   41.3958    9.2782 C.3     1  UNL1        0.1042
     14 C           4.3132   42.8285    9.4306 C.3     1  UNL1        0.1544
     15 O           3.0745   42.9759    8.8090 O.3     1  UNL1       -0.3805
     16 H           3.1580   42.7610    7.8668 H       1  UNL1        0.2105
     17 N          12.8063   41.3802    7.3567 N.pl3   1  UNL1       -0.2768
     18 H          13.0929   40.5695    7.8363 H       1  UNL1        0.1555
     19 C          17.1521   44.2524    6.6603 C.3     1  UNL1        0.0614
     20 C          15.8167   43.6003    6.6600 C.ar    1  UNL1        0.1127
     21 C          13.8370   42.2971    6.9711 C.ar    1  UNL1        0.1868
     22 N          14.7990   43.9841    5.8590 N.ar    1  UNL1       -0.1440
     23 N          13.6952   43.2591    6.0320 N.ar    1  UNL1       -0.1256
     24 S          15.3785   42.3073    7.6458 S.2     1  UNL1       -0.0347
@<TRIPOS>BOND
     1    19    20    1
     2    20    24   ar
     3    21    24   ar
     4    21    17    1
     5     1     6   ar
     6     2     3   ar
     7     4     5   ar
     8     7     5    1
     9     7     8    1
    10     8     9    1
    11     9    10    1
    12    10    12    1
    13    11    12    1
    14    11     7    1
    15    13    12    1
    16    13    14    1
    17    14    15    1
    18    22    23   ar
    19    17     1    1
    20    20    22   ar
    21    21    23   ar
    22     1     2   ar
    23     3     4   ar
    24     5     6   ar
    25    17    18    1
    26    15    16    1
@<TRIPOS>MOLECULE
MolPort-020-298-668 MCULE-1816645541 PubChem-110269813
 24 26 0 0 0
SMALL
GASTEIGER

@<TRIPOS>ATOM
      1 C          12.3939   41.2949    8.8487 C.ar    1  UNL1        0.1332
      2 C          12.9859   40.4844    9.8271 C.ar    1  UNL1        0.0344
      3 C          12.2706   40.1618   10.9804 C.ar    1  UNL1        0.0041
      4 C          10.9745   40.6471   11.1507 C.ar    1  UNL1        0.0149
      5 C          10.4082   41.4551   10.1556 C.ar    1  UNL1        0.0614
      6 N          11.1274   41.7552    9.0399 N.ar    1  UNL1       -0.2348
      7 C           9.0211   41.9946   10.2982 C.3     1  UNL1        0.0563
      8 C           8.2631   41.2728   11.4169 C.3     1  UNL1        0.0087
      9 C           6.7815   41.6534   11.4143 C.3     1  UNL1        0.0178
     10 C           6.1729   41.6538   10.0028 C.3     1  UNL1        0.0722
     11 C           8.2738   41.9631    8.9539 C.3     1  UNL1        0.0781
     12 N           7.0949   41.0968    9.0129 N.3     1  UNL1       -0.2702
     13 C           6.4314   41.1889    7.7238 C.3     1  UNL1        0.1042
     14 C           7.0904   40.2440    6.7371 C.3     1  UNL1        0.1544
     15 O           7.3021   40.9075    5.5299 O.3     1  UNL1       -0.3805
     16 H           6.4518   41.2074    5.1723 H       1  UNL1        0.2105
     17 N          13.0876   41.6551    7.6467 N.pl3   1  UNL1       -0.2768
     18 H          12.5877   41.5629    6.8036 H       1  UNL1        0.1555
     19 C          17.6366   44.0506    6.5565 C.3     1  UNL1        0.0614
     20 C          16.4994   43.2284    7.0456 C.ar    1  UNL1        0.1127
     21 C          14.4335   42.1354    7.5469 C.ar    1  UNL1        0.1868
     22 N          16.6228   42.2704    7.9898 N.ar    1  UNL1       -0.1440
     23 N          15.4724   41.6603    8.2694 N.ar    1  UNL1       -0.1256
     24 S          14.9116   43.3640    6.5012 S.2     1  UNL1       -0.0347
@<TRIPOS>BOND
     1    19    20    1
     2    20    24   ar
     3    21    24   ar
     4    21    17    1
     5     1     6   ar
     6     2     3   ar
     7     4     5   ar
     8     7     5    1
     9     7     8    1
    10     8     9    1
    11     9    10    1
    12    10    12    1
    13    11    12    1
    14    11     7    1
    15    13    12    1
    16    13    14    1
    17    14    15    1
    18    22    23   ar
    19    17     1    1
    20    20    22   ar
    21    21    23   ar
    22     1     2   ar
    23     3     4   ar
    24     5     6   ar
    25    17    18    1
    26    15    16    1
@<TRIPOS>MOLECULE
MolPort-020-298-668 MCULE-1816645541 PubChem-110269813
 24 26 0 0 0
SMALL
GASTEIGER

@<TRIPOS>ATOM
      1 C          11.7608   41.2140    9.7893 C.ar    1  UNL1        0.1332
      2 C          11.8438   40.3106   10.8578 C.ar    1  UNL1        0.0344
      3 C          13.0494   39.6588   11.1174 C.ar    1  UNL1        0.0041
      4 C          14.1607   39.9105   10.3135 C.ar    1  UNL1        0.0149
      5 C          14.0482   40.8188    9.2525 C.ar    1  UNL1        0.0614
      6 N          12.8606   41.4415    9.0204 N.ar    1  UNL1       -0.2348
      7 C          15.2157   41.1183    8.3678 C.3     1  UNL1        0.0563
      8 C          16.4676   41.4264    9.1954 C.3     1  UNL1        0.0087
      9 C          17.5969   41.9578    8.3109 C.3     1  UNL1        0.0178
     10 C          17.1124   43.0104    7.3010 C.3     1  UNL1        0.0722
     11 C          14.8766   42.2311    7.3611 C.3     1  UNL1        0.0781
     12 N          15.7270   43.4076    7.5519 N.3     1  UNL1       -0.2702
     13 C          15.3716   44.3644    6.5181 C.3     1  UNL1        0.1042
     14 C          14.2548   43.8029    5.6590 C.3     1  UNL1        0.1544
     15 O          14.6037   43.9131    4.3141 O.3     1  UNL1       -0.3805
     16 H          14.7446   44.8468    4.0921 H       1  UNL1        0.2105
     17 N          10.5448   41.9084    9.4813 N.pl3   1  UNL1       -0.2768
     18 H          10.4827   42.8444    9.7802 H       1  UNL1        0.1555
     19 C           7.0969   39.5429    6.2975 C.3     1  UNL1        0.0614
     20 C           7.8482   40.3020    7.3309 C.ar    1  UNL1        0.1127
     21 C           9.4110   41.3798    8.7834 C.ar    1  UNL1        0.1868
     22 N           7.2541   41.0100    8.3159 N.ar    1  UNL1       -0.1440
     23 N           8.1240   41.6116    9.1254 N.ar    1  UNL1       -0.1256
     24 S           9.5271   40.3941    7.4246 S.2     1  UNL1       -0.0347
@<TRIPOS>BOND
     1    19    20    1
     2    20    24   ar
     3    21    24   ar
     4    21    17    1
     5     1     6   ar
     6     2     3   ar
     7     4     5   ar
     8     7     5    1
     9     7     8    1
    10     8     9    1
    11     9    10    1
    12    10    12    1
    13    11    12    1
    14    11     7    1
    15    13    12    1
    16    13    14    1
    17    14    15    1
    18    22    23   ar
    19    17     1    1
    20    20    22   ar
    21    21    23   ar
    22     1     2   ar
    23     3     4   ar
    24     5     6   ar
    25    17    18    1
    26    15    16    1
@<TRIPOS>MOLECULE
MolPort-020-298-668 MCULE-1816645541 PubChem-110269813
 24 26 0 0 0
SMALL
GASTEIGER

@<TRIPOS>ATOM
      1 C           8.4668   42.4238   10.0762 C.ar    1  UNL1        0.1332
      2 C           8.3644   42.1252   11.4419 C.ar    1  UNL1        0.0344
      3 C           9.3519   41.3541   12.0549 C.ar    1  UNL1        0.0041
      4 C          10.4315   40.8872   11.3059 C.ar    1  UNL1        0.0149
      5 C          10.5077   41.2016    9.9425 C.ar    1  UNL1        0.0614
      6 N           9.5309   41.9555    9.3684 N.ar    1  UNL1       -0.2348
      7 C          11.6490   40.7223    9.1040 C.3     1  UNL1        0.0563
      8 C          12.9654   40.7752    9.8858 C.3     1  UNL1        0.0087
      9 C          14.1620   40.5109    8.9702 C.3     1  UNL1        0.0178
     10 C          14.0711   41.2779    7.6412 C.3     1  UNL1        0.0722
     11 C          11.7154   41.4863    7.7704 C.3     1  UNL1        0.0781
     12 N          12.9661   42.2365    7.6410 N.3     1  UNL1       -0.2702
     13 C          12.9553   42.8633    6.3304 C.3     1  UNL1        0.1042
     14 C          14.2226   43.6742    6.1372 C.3     1  UNL1        0.1544
     15 O          14.3606   44.0056    4.7905 O.3     1  UNL1       -0.3805
     16 H          14.4117   43.1942    4.2614 H       1  UNL1        0.2105
     17 N           7.4779   43.2116    9.4001 N.pl3   1  UNL1       -0.2768
     18 H           7.7983   44.0168    8.9329 H       1  UNL1        0.1555
     19 C           2.5998   41.2573    9.3298 C.3     1  UNL1        0.0614
     20 C           3.8555   42.0516    9.3030 C.ar    1  UNL1        0.1127
     21 C           6.0716   42.9472    9.3346 C.ar    1  UNL1        0.1868
     22 N           3.8909   43.3846    9.0876 N.ar    1  UNL1       -0.1440
     23 N           5.1253   43.8845    9.1043 N.ar    1  UNL1       -0.1256
     24 S           5.3988   41.4173    9.5304 S.2     1  UNL1       -0.0347
@<TRIPOS>BOND
     1    19    20    1
     2    20    24   ar
     3    21    24   ar
     4    21    17    1
     5     1     6   ar
     6     2     3   ar
     7     4     5   ar
     8     7     5    1
     9     7     8    1
    10     8     9    1
    11     9    10    1
    12    10    12    1
    13    11    12    1
    14    11     7    1
    15    13    12    1
    16    13    14    1
    17    14    15    1
    18    22    23   ar
    19    17     1    1
    20    20    22   ar
    21    21    23   ar
    22     1     2   ar
    23     3     4   ar
    24     5     6   ar
    25    17    18    1
    26    15    16    1
@<TRIPOS>MOLECULE
MolPort-020-298-668 MCULE-1816645541 PubChem-110269813
 24 26 0 0 0
SMALL
GASTEIGER

@<TRIPOS>ATOM
      1 C          15.2563   41.5185    8.2088 C.ar    1  UNL1        0.1332
      2 C          15.8941   42.5795    7.5514 C.ar    1  UNL1        0.0344
      3 C          15.1688   43.3787    6.6676 C.ar    1  UNL1        0.0041
      4 C          13.8174   43.1165    6.4453 C.ar    1  UNL1        0.0149
      5 C          13.2062   42.0491    7.1167 C.ar    1  UNL1        0.0614
      6 N          13.9362   41.2845    7.9738 N.ar    1  UNL1       -0.2348
      7 C          11.7595   41.7350    6.9081 C.3     1  UNL1        0.0563
      8 C          11.2056   40.9008    8.0675 C.3     1  UNL1        0.0087
      9 C           9.8016   40.3815    7.7524 C.3     1  UNL1        0.0178
     10 C           9.6849   39.8182    6.3270 C.3     1  UNL1        0.0722
     11 C          11.5275   41.0788    5.5361 C.3     1  UNL1        0.0781
     12 N          10.9891   39.7239    5.6711 N.3     1  UNL1       -0.2702
     13 C          10.7478   39.2238    4.3286 C.3     1  UNL1        0.1042
     14 C           9.2555   39.1026    4.0849 C.3     1  UNL1        0.1544
     15 O           8.9902   39.2875    2.7293 O.3     1  UNL1       -0.3805
     16 H           9.2920   40.1686    2.4580 H       1  UNL1        0.2105
     17 N          15.9578   40.6683    9.1256 N.pl3   1  UNL1       -0.2768
     18 H          16.8333   40.9879    9.4429 H       1  UNL1        0.1555
     19 C          13.7358   36.5932   11.5906 C.3     1  UNL1        0.0614
     20 C          14.5016   37.5525   10.7530 C.ar    1  UNL1        0.1127
     21 C          15.5155   39.4016    9.6273 C.ar    1  UNL1        0.1868
     22 N          15.4056   37.1751    9.8231 N.ar    1  UNL1       -0.1440
     23 N          15.9717   38.2046    9.1957 N.ar    1  UNL1       -0.1256
     24 S          14.3612   39.2285   10.8394 S.2     1  UNL1       -0.0347
@<TRIPOS>BOND
     1    19    20    1
     2    20    24   ar
     3    21    24   ar
     4    21    17    1
     5     1     6   ar
     6     2     3   ar
     7     4     5   ar
     8     7     5    1
     9     7     8    1
    10     8     9    1
    11     9    10    1
    12    10    12    1
    13    11    12    1
    14    11     7    1
    15    13    12    1
    16    13    14    1
    17    14    15    1
    18    22    23   ar
    19    17     1    1
    20    20    22   ar
    21    21    23   ar
    22     1     2   ar
    23     3     4   ar
    24     5     6   ar
    25    17    18    1
    26    15    16    1
@<TRIPOS>MOLECULE
MolPort-020-298-668 MCULE-1816645541 PubChem-110269813
 24 26 0 0 0
SMALL
GASTEIGER

@<TRIPOS>ATOM
      1 C           8.7432   41.4551    8.6021 C.ar    1  UNL1        0.1332
      2 C           7.9084   41.6530    7.4936 C.ar    1  UNL1        0.0344
      3 C           8.4622   41.7065    6.2144 C.ar    1  UNL1        0.0041
      4 C           9.8392   41.5629    6.0486 C.ar    1  UNL1        0.0149
      5 C          10.6491   41.3661    7.1751 C.ar    1  UNL1        0.0614
      6 N          10.0839   41.3179    8.4122 N.ar    1  UNL1       -0.2348
      7 C          12.1295   41.2060    7.0411 C.3     1  UNL1        0.0563
      8 C          12.8052   41.1721    8.4156 C.3     1  UNL1        0.0087
      9 C          14.3276   41.2434    8.2841 C.3     1  UNL1        0.0178
     10 C          14.7852   42.3057    7.2719 C.3     1  UNL1        0.0722
     11 C          12.7207   42.2796    6.1114 C.3     1  UNL1        0.0781
     12 N          13.6723   43.1395    6.8179 N.3     1  UNL1       -0.2702
     13 C          14.2155   44.0686    5.8421 C.3     1  UNL1        0.1042
     14 C          15.6074   44.5008    6.2622 C.3     1  UNL1        0.1544
     15 O          15.8791   45.7634    5.7383 O.3     1  UNL1       -0.3805
     16 H          15.8291   45.7294    4.7702 H       1  UNL1        0.2105
     17 N           8.2229   41.3933    9.9367 N.pl3   1  UNL1       -0.2768
     18 H           8.8747   41.2402   10.6584 H       1  UNL1        0.1555
     19 C           3.0346   42.1122   10.3673 C.3     1  UNL1        0.0614
     20 C           4.4916   41.8607   10.5166 C.ar    1  UNL1        0.1127
     21 C           6.8517   41.5315   10.3276 C.ar    1  UNL1        0.1868
     22 N           5.0812   41.5662   11.6957 N.ar    1  UNL1       -0.1440
     23 N           6.3963   41.3833   11.5916 N.ar    1  UNL1       -0.1256
     24 S           5.6088   41.9079    9.2574 S.2     1  UNL1       -0.0347
@<TRIPOS>BOND
     1    19    20    1
     2    20    24   ar
     3    21    24   ar
     4    21    17    1
     5     1     6   ar
     6     2     3   ar
     7     4     5   ar
     8     7     5    1
     9     7     8    1
    10     8     9    1
    11     9    10    1
    12    10    12    1
    13    11    12    1
    14    11     7    1
    15    13    12    1
    16    13    14    1
    17    14    15    1
    18    22    23   ar
    19    17     1    1
    20    20    22   ar
    21    21    23   ar
    22     1     2   ar
    23     3     4   ar
    24     5     6   ar
    25    17    18    1
    26    15    16    1
