@<TRIPOS>MOLECULE
MolPort-047-152-205 1772718345 CSSS02495358449 MCULE-4541011171 PubChem-138106020
 20 22 0 0 0
SMALL
GASTEIGER

@<TRIPOS>ATOM
      1 C          14.5885   39.1886    9.9951 C.3     1  UNL1        0.1555
      2 C          14.1829   40.9981    8.3180 C.ar    1  UNL1        0.1618
      3 C          15.5772   42.7395    7.5817 C.ar    1  UNL1        0.0664
      4 C          14.5349   43.1961    6.7197 C.ar    1  UNL1        0.0483
      5 C          13.3082   42.5068    6.6732 C.ar    1  UNL1        0.0138
      6 C          13.1777   41.3982    7.4966 C.ar    1  UNL1        0.0694
      7 C          12.1613   40.4982    7.7291 C.ar    1  UNL1        0.1571
      8 N          13.8025   39.9149    9.0137 N.ar    1  UNL1       -0.2308
      9 N          15.3716   41.6452    8.3828 N.ar    1  UNL1       -0.2306
     10 N          12.5612   39.5957    8.6618 N.ar    1  UNL1       -0.1527
     11 BR         14.7369   44.7488    5.6179 Br      1  UNL1       -0.0478
     12 C          10.6119   39.9980    5.7812 C.2     1  UNL1        0.2507
     13 N          10.8794   40.5109    7.0929 N.am    1  UNL1       -0.2644
     14 O          11.5331   39.4876    5.0903 O.2     1  UNL1       -0.2698
     15 H          10.1260   40.9004    7.5928 H       1  UNL1        0.1566
     16 C           9.2585   40.0601    5.2219 C.2     1  UNL1        0.0581
     17 C           8.2459   39.3956    5.7628 C.2     1  UNL1        0.0048
     18 C          16.8791   43.4834    7.6678 C.3     1  UNL1        0.0408
     19 C          17.7275   43.1714    6.4471 C.3     1  UNL1        0.0063
     20 C          18.0542   42.5241    7.7721 C.3     1  UNL1        0.0063
@<TRIPOS>BOND
     1     1     8    1
     2     3     9   ar
     3     4     5   ar
     4     4    11    1
     5     6     7   ar
     6     6     2   ar
     7     7    13    1
     8    12    16    1
     9    18     3    1
    10    18    19    1
    11    19    20    1
    12    20    18    1
    13     8     2   ar
    14     8    10   ar
    15    13    12   am
    16     2     9   ar
    17     3     4   ar
    18     5     6   ar
    19     7    10   ar
    20    12    14    2
    21    16    17    2
    22    13    15    1
@<TRIPOS>MOLECULE
MolPort-047-152-205 1772718345 CSSS02495358449 MCULE-4541011171 PubChem-138106020
 20 22 0 0 0
SMALL
GASTEIGER

@<TRIPOS>ATOM
      1 C          16.3773   39.4442   10.5523 C.3     1  UNL1        0.1555
      2 C          15.1928   40.7500    8.7795 C.ar    1  UNL1        0.1618
      3 C          15.7585   42.7803    7.7420 C.ar    1  UNL1        0.0664
      4 C          14.5628   42.7053    6.9656 C.ar    1  UNL1        0.0483
      5 C          13.6935   41.6083    7.1174 C.ar    1  UNL1        0.0138
      6 C          14.0558   40.6418    8.0441 C.ar    1  UNL1        0.0694
      7 C          13.4804   39.4639    8.4669 C.ar    1  UNL1        0.1571
      8 N          15.3060   39.6979    9.6054 N.ar    1  UNL1       -0.2308
      9 N          16.0445   41.7963    8.6537 N.ar    1  UNL1       -0.2306
     10 N          14.2601   38.8981    9.4242 N.ar    1  UNL1       -0.1527
     11 BR         14.0768   44.0725    5.7166 Br      1  UNL1       -0.0478
     12 C          10.9800   39.0563    8.6307 C.2     1  UNL1        0.2507
     13 N          12.2500   38.9192    7.9798 N.am    1  UNL1       -0.2644
     14 O          10.8779   39.6913    9.7136 O.2     1  UNL1       -0.2698
     15 H          12.2776   38.4131    7.1357 H       1  UNL1        0.1566
     16 C           9.7773   38.4578    8.0445 C.2     1  UNL1        0.0581
     17 C           9.3388   38.8022    6.8409 C.2     1  UNL1        0.0048
     18 C          16.6790   43.9604    7.6162 C.3     1  UNL1        0.0408
     19 C          17.7281   43.6792    6.5543 C.3     1  UNL1        0.0063
     20 C          18.0995   43.5942    8.0159 C.3     1  UNL1        0.0063
@<TRIPOS>BOND
     1     1     8    1
     2     3     9   ar
     3     4     5   ar
     4     4    11    1
     5     6     7   ar
     6     6     2   ar
     7     7    13    1
     8    12    16    1
     9    18     3    1
    10    18    19    1
    11    19    20    1
    12    20    18    1
    13     8     2   ar
    14     8    10   ar
    15    13    12   am
    16     2     9   ar
    17     3     4   ar
    18     5     6   ar
    19     7    10   ar
    20    12    14    2
    21    16    17    2
    22    13    15    1
@<TRIPOS>MOLECULE
MolPort-047-152-205 1772718345 CSSS02495358449 MCULE-4541011171 PubChem-138106020
 20 22 0 0 0
SMALL
GASTEIGER

@<TRIPOS>ATOM
      1 C          13.9751   38.6915    9.9798 C.3     1  UNL1        0.1555
      2 C          13.6349   40.5494    8.3417 C.ar    1  UNL1        0.1618
      3 C          15.1610   42.0931    7.4434 C.ar    1  UNL1        0.0664
      4 C          14.1014   42.6905    6.6961 C.ar    1  UNL1        0.0483
      5 C          12.7959   42.1718    6.7891 C.ar    1  UNL1        0.0138
      6 C          12.6088   41.0855    7.6312 C.ar    1  UNL1        0.0694
      7 C          11.5125   40.3283    7.9805 C.ar    1  UNL1        0.1571
      8 N          13.1911   39.5225    9.0837 N.ar    1  UNL1       -0.2308
      9 N          14.8994   41.0312    8.2713 N.ar    1  UNL1       -0.2306
     10 N          11.8874   39.3745    8.8716 N.ar    1  UNL1       -0.1527
     11 BR         14.3880   44.2090    5.5659 Br      1  UNL1       -0.0478
     12 C           9.4064   41.7094    7.6612 C.2     1  UNL1        0.2507
     13 N          10.1823   40.5164    7.4874 N.am    1  UNL1       -0.2644
     14 O           9.8769   42.6970    8.2853 O.2     1  UNL1       -0.2698
     15 H           9.7697   39.7720    6.9926 H       1  UNL1        0.1566
     16 C           8.0496   41.7985    7.1139 C.2     1  UNL1        0.0581
     17 C           7.0111   41.2403    7.7217 C.2     1  UNL1        0.0048
     18 C          16.5522   42.6555    7.3811 C.3     1  UNL1        0.0408
     19 C          17.2155   42.5297    8.7418 C.3     1  UNL1        0.0063
     20 C          16.6942   43.8711    8.2832 C.3     1  UNL1        0.0063
@<TRIPOS>BOND
     1     1     8    1
     2     3     9   ar
     3     4     5   ar
     4     4    11    1
     5     6     7   ar
     6     6     2   ar
     7     7    13    1
     8    12    16    1
     9    18     3    1
    10    18    19    1
    11    19    20    1
    12    20    18    1
    13     8     2   ar
    14     8    10   ar
    15    13    12   am
    16     2     9   ar
    17     3     4   ar
    18     5     6   ar
    19     7    10   ar
    20    12    14    2
    21    16    17    2
    22    13    15    1
@<TRIPOS>MOLECULE
MolPort-047-152-205 1772718345 CSSS02495358449 MCULE-4541011171 PubChem-138106020
 20 22 0 0 0
SMALL
GASTEIGER

@<TRIPOS>ATOM
      1 C          16.4682   43.0653    6.4059 C.3     1  UNL1        0.1555
      2 C          15.2384   41.6608    8.0690 C.ar    1  UNL1        0.1618
      3 C          16.0354   40.3470    9.8460 C.ar    1  UNL1        0.0664
      4 C          14.6940   39.9671   10.1536 C.ar    1  UNL1        0.0483
      5 C          13.6265   40.4743    9.3886 C.ar    1  UNL1        0.0138
      6 C          13.9502   41.3309    8.3467 C.ar    1  UNL1        0.0694
      7 C          13.2087   42.0042    7.4012 C.ar    1  UNL1        0.1571
      8 N          15.2819   42.4888    7.0133 N.ar    1  UNL1       -0.2308
      9 N          16.2832   41.1847    8.7885 N.ar    1  UNL1       -0.2306
     10 N          14.0408   42.7092    6.5920 N.ar    1  UNL1       -0.1527
     11 BR         14.2840   38.7580   11.5802 Br      1  UNL1       -0.0478
     12 C          11.0670   41.3191    6.2225 C.2     1  UNL1        0.2507
     13 N          11.7830   41.9662    7.2828 N.am    1  UNL1       -0.2644
     14 O          11.6841   40.7248    5.2993 O.2     1  UNL1       -0.2698
     15 H          11.2551   42.4175    7.9806 H       1  UNL1        0.1566
     16 C           9.6017   41.3393    6.1963 C.2     1  UNL1        0.0581
     17 C           8.8871   41.7063    7.2519 C.2     1  UNL1        0.0048
     18 C          17.1874   39.7882   10.6310 C.3     1  UNL1        0.0408
     19 C          17.7266   38.5500    9.9358 C.3     1  UNL1        0.0063
     20 C          16.8656   38.4026   11.1680 C.3     1  UNL1        0.0063
@<TRIPOS>BOND
     1     1     8    1
     2     3     9   ar
     3     4     5   ar
     4     4    11    1
     5     6     7   ar
     6     6     2   ar
     7     7    13    1
     8    12    16    1
     9    18     3    1
    10    18    19    1
    11    19    20    1
    12    20    18    1
    13     8     2   ar
    14     8    10   ar
    15    13    12   am
    16     2     9   ar
    17     3     4   ar
    18     5     6   ar
    19     7    10   ar
    20    12    14    2
    21    16    17    2
    22    13    15    1
@<TRIPOS>MOLECULE
MolPort-047-152-205 1772718345 CSSS02495358449 MCULE-4541011171 PubChem-138106020
 20 22 0 0 0
SMALL
GASTEIGER

@<TRIPOS>ATOM
      1 C           9.3618   31.2912   17.5898 C.3     1  UNL1        0.1555
      2 C          10.0081   32.5606   15.5351 C.ar    1  UNL1        0.1618
      3 C          12.1121   32.8982   14.5462 C.ar    1  UNL1        0.0664
      4 C          11.4963   33.6894   13.5298 C.ar    1  UNL1        0.0483
      5 C          10.1027   33.8887   13.5416 C.ar    1  UNL1        0.0138
      6 C           9.3908   33.2948   14.5733 C.ar    1  UNL1        0.0694
      7 C           8.0575   33.2664   14.9181 C.ar    1  UNL1        0.1571
      8 N           9.1035   32.1091   16.4181 N.ar    1  UNL1       -0.2308
      9 N          11.3475   32.3558   15.5475 N.ar    1  UNL1       -0.2306
     10 N           7.8992   32.5351   16.0514 N.ar    1  UNL1       -0.1527
     11 BR         12.5125   34.5207   12.1364 Br      1  UNL1       -0.0478
     12 C           5.7959   33.2652   13.7647 C.2     1  UNL1        0.2507
     13 N           7.0002   33.9099   14.1996 N.am    1  UNL1       -0.2644
     14 O           5.5982   32.0444   14.0028 O.2     1  UNL1       -0.2698
     15 H           7.1079   34.8655   13.9886 H       1  UNL1        0.1566
     16 C           4.7731   34.0189   13.0337 C.2     1  UNL1        0.0581
     17 C           5.0676   34.7387   11.9592 C.2     1  UNL1        0.0048
     18 C          13.6013   32.7042   14.5668 C.3     1  UNL1        0.0408
     19 C          13.9484   31.3505   13.9716 C.3     1  UNL1        0.0063
     20 C          13.9917   31.5441   15.4689 C.3     1  UNL1        0.0063
@<TRIPOS>BOND
     1     1     8    1
     2     3     9   ar
     3     4     5   ar
     4     4    11    1
     5     6     7   ar
     6     6     2   ar
     7     7    13    1
     8    12    16    1
     9    18     3    1
    10    18    19    1
    11    19    20    1
    12    20    18    1
    13     8     2   ar
    14     8    10   ar
    15    13    12   am
    16     2     9   ar
    17     3     4   ar
    18     5     6   ar
    19     7    10   ar
    20    12    14    2
    21    16    17    2
    22    13    15    1
@<TRIPOS>MOLECULE
MolPort-047-152-205 1772718345 CSSS02495358449 MCULE-4541011171 PubChem-138106020
 20 22 0 0 0
SMALL
GASTEIGER

@<TRIPOS>ATOM
      1 C           8.1240   37.5139    6.3707 C.3     1  UNL1        0.1555
      2 C           8.8697   39.6954    7.3383 C.ar    1  UNL1        0.1618
      3 C          10.9487   40.7839    7.2304 C.ar    1  UNL1        0.0664
      4 C          10.4235   41.8446    8.0286 C.ar    1  UNL1        0.0483
      5 C           9.0849   41.8018    8.4625 C.ar    1  UNL1        0.0138
      6 C           8.3361   40.6967    8.0853 C.ar    1  UNL1        0.0694
      7 C           7.0356   40.3041    8.3127 C.ar    1  UNL1        0.1571
      8 N           7.9476   38.7443    7.1215 N.ar    1  UNL1       -0.2308
      9 N          10.1552   39.7119    6.9102 N.ar    1  UNL1       -0.2306
     10 N           6.8142   39.1051    7.7147 N.ar    1  UNL1       -0.1527
     11 BR         11.4934   43.3416    8.5574 Br      1  UNL1       -0.0478
     12 C           5.5925   42.3506    8.7304 C.2     1  UNL1        0.2507
     13 N           6.0659   41.0396    9.0656 N.am    1  UNL1       -0.2644
     14 O           6.0259   42.9493    7.7105 O.2     1  UNL1       -0.2698
     15 H           5.6968   40.6140    9.8730 H       1  UNL1        0.1566
     16 C           4.5942   43.0168    9.5718 C.2     1  UNL1        0.0581
     17 C           4.5003   42.7743   10.8725 C.2     1  UNL1        0.0048
     18 C          12.3839   40.7983    6.7880 C.3     1  UNL1        0.0408
     19 C          13.2620   40.2184    7.8834 C.3     1  UNL1        0.0063
     20 C          13.2209   41.7128    7.6683 C.3     1  UNL1        0.0063
@<TRIPOS>BOND
     1     1     8    1
     2     3     9   ar
     3     4     5   ar
     4     4    11    1
     5     6     7   ar
     6     6     2   ar
     7     7    13    1
     8    12    16    1
     9    18     3    1
    10    18    19    1
    11    19    20    1
    12    20    18    1
    13     8     2   ar
    14     8    10   ar
    15    13    12   am
    16     2     9   ar
    17     3     4   ar
    18     5     6   ar
    19     7    10   ar
    20    12    14    2
    21    16    17    2
    22    13    15    1
@<TRIPOS>MOLECULE
MolPort-047-152-205 1772718345 CSSS02495358449 MCULE-4541011171 PubChem-138106020
 20 22 0 0 0
SMALL
GASTEIGER

@<TRIPOS>ATOM
      1 C          10.5765   41.5698    5.8910 C.3     1  UNL1        0.1555
      2 C          12.8098   41.5139    7.0136 C.ar    1  UNL1        0.1618
      3 C          14.7720   42.7284    6.5736 C.ar    1  UNL1        0.0664
      4 C          15.4265   42.0372    7.6375 C.ar    1  UNL1        0.0483
      5 C          14.7225   41.0793    8.3918 C.ar    1  UNL1        0.0138
      6 C          13.3998   40.8511    8.0421 C.ar    1  UNL1        0.0694
      7 C          12.4175   40.0141    8.5237 C.ar    1  UNL1        0.1571
      8 N          11.5388   41.1052    6.8741 N.ar    1  UNL1       -0.2308
      9 N          13.4659   42.4384    6.2713 N.ar    1  UNL1       -0.2306
     10 N          11.2832   40.1828    7.7963 N.ar    1  UNL1       -0.1527
     11 BR         17.2633   42.3541    8.0746 Br      1  UNL1       -0.0478
     12 C          13.5737   39.2002   10.6322 C.2     1  UNL1        0.2507
     13 N          12.5659   39.1030    9.6173 N.am    1  UNL1       -0.2644
     14 O          14.4185   40.1342   10.6120 O.2     1  UNL1       -0.2698
     15 H          11.9291   38.3545    9.6770 H       1  UNL1        0.1566
     16 C          13.6370   38.2112   11.7122 C.2     1  UNL1        0.0581
     17 C          14.0575   36.9708   11.5023 C.2     1  UNL1        0.0048
     18 C          15.5187   43.7284    5.7380 C.3     1  UNL1        0.0408
     19 C          15.9642   44.8906    6.6087 C.3     1  UNL1        0.0063
     20 C          14.7823   45.0576    5.6831 C.3     1  UNL1        0.0063
@<TRIPOS>BOND
     1     1     8    1
     2     3     9   ar
     3     4     5   ar
     4     4    11    1
     5     6     7   ar
     6     6     2   ar
     7     7    13    1
     8    12    16    1
     9    18     3    1
    10    18    19    1
    11    19    20    1
    12    20    18    1
    13     8     2   ar
    14     8    10   ar
    15    13    12   am
    16     2     9   ar
    17     3     4   ar
    18     5     6   ar
    19     7    10   ar
    20    12    14    2
    21    16    17    2
    22    13    15    1
@<TRIPOS>MOLECULE
MolPort-047-152-205 1772718345 CSSS02495358449 MCULE-4541011171 PubChem-138106020
 20 22 0 0 0
SMALL
GASTEIGER

@<TRIPOS>ATOM
      1 C          15.3369   42.9150    6.8663 C.3     1  UNL1        0.1555
      2 C          14.3285   41.2651    8.4513 C.ar    1  UNL1        0.1618
      3 C          15.3206   39.5326    9.6894 C.ar    1  UNL1        0.0664
      4 C          14.0395   39.1905   10.2183 C.ar    1  UNL1        0.0483
      5 C          12.9029   39.9315    9.8426 C.ar    1  UNL1        0.0138
      6 C          13.0986   40.9745    8.9494 C.ar    1  UNL1        0.0694
      7 C          12.2597   41.8940    8.3595 C.ar    1  UNL1        0.1571
      8 N          14.2462   42.3034    7.6045 N.ar    1  UNL1       -0.2308
      9 N          15.4372   40.5662    8.7953 N.ar    1  UNL1       -0.2306
     10 N          12.9797   42.7010    7.5382 N.ar    1  UNL1       -0.1527
     11 BR         13.7993   37.7247   11.4264 Br      1  UNL1       -0.0478
     12 C          10.2146   42.8919    9.4851 C.2     1  UNL1        0.2507
     13 N          10.8474   41.9856    8.5721 N.am    1  UNL1       -0.2644
     14 O          10.9002   43.6892   10.1784 O.2     1  UNL1       -0.2698
     15 H          10.2680   41.3821    8.0533 H       1  UNL1        0.1566
     16 C           8.7558   42.9046    9.6265 C.2     1  UNL1        0.0581
     17 C           7.9584   43.2653    8.6297 C.2     1  UNL1        0.0048
     18 C          16.5373   38.7310   10.0540 C.3     1  UNL1        0.0408
     19 C          17.0712   39.1956   11.3980 C.3     1  UNL1        0.0063
     20 C          17.7741   39.6123   10.1277 C.3     1  UNL1        0.0063
@<TRIPOS>BOND
     1     1     8    1
     2     3     9   ar
     3     4     5   ar
     4     4    11    1
     5     6     7   ar
     6     6     2   ar
     7     7    13    1
     8    12    16    1
     9    18     3    1
    10    18    19    1
    11    19    20    1
    12    20    18    1
    13     8     2   ar
    14     8    10   ar
    15    13    12   am
    16     2     9   ar
    17     3     4   ar
    18     5     6   ar
    19     7    10   ar
    20    12    14    2
    21    16    17    2
    22    13    15    1
@<TRIPOS>MOLECULE
MolPort-047-152-205 1772718345 CSSS02495358449 MCULE-4541011171 PubChem-138106020
 20 22 0 0 0
SMALL
GASTEIGER

@<TRIPOS>ATOM
      1 C           9.3369   41.0971   14.1834 C.3     1  UNL1        0.1555
      2 C           9.5522   41.2311   11.6960 C.ar    1  UNL1        0.1618
      3 C          11.3878   40.7972   10.2956 C.ar    1  UNL1        0.0664
      4 C          10.5915   41.1418    9.1619 C.ar    1  UNL1        0.0483
      5 C           9.2474   41.5226    9.3362 C.ar    1  UNL1        0.0138
      6 C           8.7643   41.5492   10.6362 C.ar    1  UNL1        0.0694
      7 C           7.5450   41.8652   11.1934 C.ar    1  UNL1        0.1571
      8 N           8.8541   41.3463   12.8368 N.ar    1  UNL1       -0.2308
      9 N          10.8488   40.8637   11.5552 N.ar    1  UNL1       -0.2306
     10 N           7.6176   41.7355   12.5433 N.ar    1  UNL1       -0.1527
     11 BR         11.2983   41.1240    7.3827 Br      1  UNL1       -0.0478
     12 C           5.1057   41.6204   10.5336 C.2     1  UNL1        0.2507
     13 N           6.3808   42.2723   10.4674 N.am    1  UNL1       -0.2644
     14 O           4.9375   40.6102   11.2667 O.2     1  UNL1       -0.2698
     15 H           6.4616   43.0577    9.8792 H       1  UNL1        0.1566
     16 C           3.9748   42.1206    9.7467 C.2     1  UNL1        0.0581
     17 C           2.9263   41.3587    9.4644 C.2     1  UNL1        0.0048
     18 C          12.8325   40.4216   10.1296 C.3     1  UNL1        0.0408
     19 C          12.9547   38.9150    9.9803 C.3     1  UNL1        0.0063
     20 C          13.3158   39.5699   11.2926 C.3     1  UNL1        0.0063
@<TRIPOS>BOND
     1     1     8    1
     2     3     9   ar
     3     4     5   ar
     4     4    11    1
     5     6     7   ar
     6     6     2   ar
     7     7    13    1
     8    12    16    1
     9    18     3    1
    10    18    19    1
    11    19    20    1
    12    20    18    1
    13     8     2   ar
    14     8    10   ar
    15    13    12   am
    16     2     9   ar
    17     3     4   ar
    18     5     6   ar
    19     7    10   ar
    20    12    14    2
    21    16    17    2
    22    13    15    1
@<TRIPOS>MOLECULE
MolPort-047-152-205 1772718345 CSSS02495358449 MCULE-4541011171 PubChem-138106020
 20 22 0 0 0
SMALL
GASTEIGER

@<TRIPOS>ATOM
      1 C           3.7406   41.8760   11.8949 C.3     1  UNL1        0.1555
      2 C           5.4228   42.3379   10.1038 C.ar    1  UNL1        0.1618
      3 C           5.2101   43.4921    8.0687 C.ar    1  UNL1        0.0664
      4 C           6.5818   43.2193    7.7822 C.ar    1  UNL1        0.0483
      5 C           7.3631   42.4983    8.7051 C.ar    1  UNL1        0.0138
      6 C           6.7346   42.0763    9.8674 C.ar    1  UNL1        0.0694
      7 C           7.1501   41.3638   10.9706 C.ar    1  UNL1        0.1571
      8 N           5.0568   41.8148   11.2846 N.ar    1  UNL1       -0.2308
      9 N           4.6491   43.0277    9.2310 N.ar    1  UNL1       -0.2306
     10 N           6.1090   41.2127   11.8294 N.ar    1  UNL1       -0.1527
     11 BR          7.4109   43.7902    6.1536 Br      1  UNL1       -0.0478
     12 C           9.6523   41.6621   11.2789 C.2     1  UNL1        0.2507
     13 N           8.4711   40.8555   11.1815 N.am    1  UNL1       -0.2644
     14 O           9.5846   42.9158   11.1788 O.2     1  UNL1       -0.2698
     15 H           8.5765   39.8803   11.2657 H       1  UNL1        0.1566
     16 C          10.9607   41.0387   11.4969 C.2     1  UNL1        0.0581
     17 C          11.4524   40.1320   10.6628 C.2     1  UNL1        0.0048
     18 C           4.3546   44.2306    7.0795 C.3     1  UNL1        0.0408
     19 C           4.4732   45.7260    7.3179 C.3     1  UNL1        0.0063
     20 C           3.2375   44.9894    7.7782 C.3     1  UNL1        0.0063
@<TRIPOS>BOND
     1     1     8    1
     2     3     9   ar
     3     4     5   ar
     4     4    11    1
     5     6     7   ar
     6     6     2   ar
     7     7    13    1
     8    12    16    1
     9    18     3    1
    10    18    19    1
    11    19    20    1
    12    20    18    1
    13     8     2   ar
    14     8    10   ar
    15    13    12   am
    16     2     9   ar
    17     3     4   ar
    18     5     6   ar
    19     7    10   ar
    20    12    14    2
    21    16    17    2
    22    13    15    1
